<?xml version="1.0" encoding="UTF-8"?>

<!-- generated on Tue Aug 21 23:50:37 2018 by SUMO netconvert Version 0.30.0
<?xml version="1.0" encoding="UTF-8"?>

<configuration xmlns:xsi="http://www.w3.org/2001/XMLSchema-instance" xsi:noNamespaceSchemaLocation="http://sumo.dlr.de/xsd/netconvertConfiguration.xsd">

    <input>
        <osm-files value="flpoly.osm"/>
    </input>

    <output>
        <output-file value="flpoly.net.xml"/>
    </output>

    <projection>
        <proj.utm value="true"/>
    </projection>

    <tls_building>
        <tls.discard-simple value="true"/>
        <tls.join value="true"/>
        <tls.guess-signals value="true"/>
    </tls_building>

    <ramp_guessing>
        <ramps.guess value="true"/>
    </ramp_guessing>

    <processing>
        <roundabouts.guess value="true"/>
        <junctions.join value="true"/>
    </processing>

</configuration>
-->

<net version="0.27" xmlns:xsi="http://www.w3.org/2001/XMLSchema-instance" xsi:noNamespaceSchemaLocation="http://sumo.dlr.de/xsd/net_file.xsd">

    <location netOffset="-411782.56,-3112256.38" convBoundary="0.00,0.00,7060.01,2659.27" origBoundary="-81.898369,28.133266,-81.826609,28.157407" projParameter="+proj=utm +zone=17 +ellps=WGS84 +datum=WGS84 +units=m +no_defs"/>

    <type id="highway.bridleway" priority="1" numLanes="1" speed="2.78" allow="pedestrian" oneway="1" width="2.00"/>
    <type id="highway.bus_guideway" priority="1" numLanes="1" speed="8.33" allow="bus" oneway="1"/>
    <type id="highway.cycleway" priority="1" numLanes="1" speed="5.56" allow="bicycle" oneway="0" width="1.00"/>
    <type id="highway.footway" priority="1" numLanes="1" speed="2.78" allow="pedestrian" oneway="1" width="2.00"/>
    <type id="highway.ford" priority="1" numLanes="1" speed="2.78" allow="army" oneway="0"/>
    <type id="highway.living_street" priority="3" numLanes="1" speed="2.78" disallow="tram rail_urban rail rail_electric ship" oneway="0"/>
    <type id="highway.motorway" priority="13" numLanes="2" speed="44.44" allow="private emergency authority army vip passenger hov taxi bus coach delivery truck trailer motorcycle evehicle custom1 custom2" oneway="1"/>
    <type id="highway.motorway_link" priority="12" numLanes="1" speed="22.22" allow="private emergency authority army vip passenger hov taxi bus coach delivery truck trailer motorcycle evehicle custom1 custom2" oneway="1"/>
    <type id="highway.path" priority="1" numLanes="1" speed="2.78" allow="bicycle pedestrian" oneway="1" width="2.00"/>
    <type id="highway.pedestrian" priority="1" numLanes="1" speed="2.78" allow="pedestrian" oneway="1" width="2.00"/>
    <type id="highway.primary" priority="9" numLanes="2" speed="27.78" disallow="tram rail_urban rail rail_electric ship" oneway="0"/>
    <type id="highway.primary_link" priority="8" numLanes="1" speed="22.22" disallow="tram rail_urban rail rail_electric ship" oneway="0"/>
    <type id="highway.raceway" priority="14" numLanes="2" speed="83.33" allow="vip" oneway="0"/>
    <type id="highway.residential" priority="4" numLanes="1" speed="13.89" disallow="tram rail_urban rail rail_electric ship" oneway="0"/>
    <type id="highway.secondary" priority="7" numLanes="2" speed="27.78" disallow="tram rail_urban rail rail_electric ship" oneway="0"/>
    <type id="highway.secondary_link" priority="6" numLanes="1" speed="22.22" disallow="tram rail_urban rail rail_electric ship" oneway="0"/>
    <type id="highway.service" priority="2" numLanes="1" speed="5.56" allow="delivery bicycle pedestrian" oneway="0"/>
    <type id="highway.services" priority="1" numLanes="1" speed="8.33" disallow="tram rail_urban rail rail_electric ship" oneway="0"/>
    <type id="highway.stairs" priority="1" numLanes="1" speed="1.39" allow="pedestrian" oneway="1" width="2.00"/>
    <type id="highway.step" priority="1" numLanes="1" speed="1.39" allow="pedestrian" oneway="1" width="2.00"/>
    <type id="highway.steps" priority="1" numLanes="1" speed="1.39" allow="pedestrian" oneway="1" width="2.00"/>
    <type id="highway.tertiary" priority="6" numLanes="1" speed="22.22" disallow="tram rail_urban rail rail_electric ship" oneway="0"/>
    <type id="highway.tertiary_link" priority="5" numLanes="1" speed="22.22" disallow="tram rail_urban rail rail_electric ship" oneway="0"/>
    <type id="highway.track" priority="1" numLanes="1" speed="5.56" disallow="tram rail_urban rail rail_electric ship" oneway="0"/>
    <type id="highway.trunk" priority="11" numLanes="2" speed="27.78" disallow="tram rail_urban rail rail_electric bicycle pedestrian ship" oneway="0"/>
    <type id="highway.trunk_link" priority="10" numLanes="1" speed="22.22" disallow="tram rail_urban rail rail_electric bicycle pedestrian ship" oneway="0"/>
    <type id="highway.unclassified" priority="5" numLanes="1" speed="13.89" disallow="tram rail_urban rail rail_electric ship" oneway="0"/>
    <type id="highway.unsurfaced" priority="1" numLanes="1" speed="8.33" disallow="tram rail_urban rail rail_electric ship" oneway="0"/>
    <type id="railway.light_rail" priority="15" numLanes="1" speed="27.78" allow="rail_urban" oneway="1"/>
    <type id="railway.preserved" priority="15" numLanes="1" speed="27.78" allow="rail" oneway="1"/>
    <type id="railway.rail" priority="15" numLanes="1" speed="83.33" allow="rail rail_electric" oneway="1"/>
    <type id="railway.subway" priority="15" numLanes="1" speed="27.78" allow="rail_urban" oneway="1"/>
    <type id="railway.tram" priority="15" numLanes="1" speed="13.89" allow="tram" oneway="1"/>

    <edge id=":100037364_0" function="internal">
        <lane id=":100037364_0_0" index="0" allow="private emergency authority army vip passenger hov taxi bus coach delivery truck trailer motorcycle evehicle custom1 custom2" speed="27.94" length="3.09" shape="4387.53,2106.49 4390.51,2107.30"/>
    </edge>
    <edge id=":100037364_1" function="internal">
        <lane id=":100037364_1_0" index="0" allow="private emergency authority army vip passenger hov taxi bus coach delivery truck trailer motorcycle evehicle custom1 custom2" speed="31.29" length="2.13" shape="4386.58,2109.65 4388.61,2110.21"/>
        <lane id=":100037364_1_1" index="1" allow="private emergency authority army vip passenger hov taxi bus coach delivery truck trailer motorcycle evehicle custom1 custom2" speed="31.29" length="2.13" shape="4385.62,2112.81 4387.68,2113.38"/>
        <lane id=":100037364_1_2" index="2" allow="private emergency authority army vip passenger hov taxi bus coach delivery truck trailer motorcycle evehicle custom1 custom2" speed="31.29" length="2.13" shape="4384.66,2115.97 4386.74,2116.54"/>
    </edge>
    <edge id=":100037431_0" function="internal">
        <lane id=":100037431_0_0" index="0" allow="private emergency authority army vip passenger hov taxi bus coach delivery truck trailer motorcycle evehicle custom1 custom2" speed="24.59" length="30.05" shape="5166.06,2040.47 5175.04,2011.79"/>
    </edge>
    <edge id=":100037431_1" function="internal">
        <lane id=":100037431_1_0" index="0" allow="private emergency authority army vip passenger hov taxi bus coach delivery truck trailer motorcycle evehicle custom1 custom2" speed="24.59" length="30.00" shape="5169.22,2041.36 5178.20,2012.74"/>
    </edge>
    <edge id=":100048762_0" function="internal">
        <lane id=":100048762_0_0" index="0" allow="private emergency authority army vip passenger hov taxi bus coach delivery truck trailer motorcycle evehicle custom1 custom2" speed="24.59" length="31.00" shape="5234.20,1916.88 5225.84,1946.72"/>
    </edge>
    <edge id=":100048762_1" function="internal">
        <lane id=":100048762_1_0" index="0" allow="private emergency authority army vip passenger hov taxi bus coach delivery truck trailer motorcycle evehicle custom1 custom2" speed="24.59" length="30.99" shape="5231.05,1915.91 5222.70,1945.76"/>
    </edge>
    <edge id=":100048813_0" function="internal">
        <lane id=":100048813_0_0" index="0" allow="private emergency authority army vip passenger hov taxi bus coach delivery truck trailer motorcycle evehicle custom1 custom2" speed="31.29" length="3.00" shape="5446.52,2422.81 5449.38,2423.70"/>
        <lane id=":100048813_0_1" index="1" allow="private emergency authority army vip passenger hov taxi bus coach delivery truck trailer motorcycle evehicle custom1 custom2" speed="31.29" length="3.00" shape="5445.58,2425.97 5448.45,2426.87"/>
        <lane id=":100048813_0_2" index="2" allow="private emergency authority army vip passenger hov taxi bus coach delivery truck trailer motorcycle evehicle custom1 custom2" speed="31.29" length="3.00" shape="5444.65,2429.14 5447.51,2430.03"/>
    </edge>
    <edge id=":100048813_3" function="internal">
        <lane id=":100048813_3_0" index="0" allow="private emergency authority army vip passenger hov taxi bus coach delivery truck trailer motorcycle evehicle custom1 custom2" speed="27.94" length="2.99" shape="5447.44,2419.70 5450.31,2420.54"/>
    </edge>
    <edge id=":2836320074_0" function="internal">
        <lane id=":2836320074_0_0" index="0" disallow="tram rail_urban rail rail_electric ship" speed="14.53" length="3.70" shape="4433.34,1315.60 4430.64,1319.11"/>
        <lane id=":2836320074_0_1" index="1" disallow="tram rail_urban rail rail_electric ship" speed="14.53" length="3.70" shape="4433.34,1315.60 4430.36,1315.83"/>
    </edge>
    <edge id=":2836320074_2" function="internal">
        <lane id=":2836320074_2_0" index="0" disallow="tram rail_urban rail rail_electric ship" speed="13.41" length="3.19" shape="4433.34,1315.60 4432.04,1314.87 4431.58,1314.07 4431.88,1313.35"/>
    </edge>
    <edge id=":2836320074_5" function="internal">
        <lane id=":2836320074_5_0" index="0" speed="13.41" length="1.63" shape="4431.88,1313.35 4431.93,1313.22 4433.11,1312.31"/>
    </edge>
    <edge id=":2836320074_3" function="internal">
        <lane id=":2836320074_3_0" index="0" disallow="tram rail_urban rail rail_electric ship" speed="14.53" length="4.53" shape="4429.81,1309.20 4433.11,1312.31"/>
    </edge>
    <edge id=":2836320074_4" function="internal">
        <lane id=":2836320074_4_0" index="0" disallow="tram rail_urban rail rail_electric ship" speed="15.65" length="2.44" shape="4430.08,1312.50 4431.40,1313.22 4431.89,1314.02"/>
    </edge>
    <edge id=":2836320074_6" function="internal">
        <lane id=":2836320074_6_0" index="0" speed="15.65" length="2.44" shape="4431.89,1314.02 4431.54,1314.89 4430.36,1315.83"/>
    </edge>
    <edge id=":2836320080_0" function="internal">
        <lane id=":2836320080_0_0" index="0" disallow="tram rail_urban rail rail_electric ship" speed="13.41" length="0.53" shape="5054.98,1202.61 5054.47,1202.75"/>
    </edge>
    <edge id=":2836320080_1" function="internal">
        <lane id=":2836320080_1_0" index="0" disallow="tram rail_urban rail rail_electric ship" speed="13.41" length="2.43" shape="5054.98,1202.61 5053.52,1202.29 5052.83,1201.66"/>
    </edge>
    <edge id=":2836320080_4" function="internal">
        <lane id=":2836320080_4_0" index="0" speed="13.41" length="2.43" shape="5052.83,1201.66 5052.92,1200.73 5053.78,1199.51"/>
    </edge>
    <edge id=":2836320080_2" function="internal">
        <lane id=":2836320080_2_0" index="0" disallow="tram rail_urban rail rail_electric ship" speed="13.41" length="0.17" shape="5053.62,1199.56 5053.67,1199.55 5053.70,1199.54 5053.74,1199.53 5053.78,1199.51"/>
    </edge>
    <edge id=":2836320080_3" function="internal">
        <lane id=":2836320080_3_0" index="0" disallow="tram rail_urban rail rail_electric ship" speed="13.41" length="2.41" shape="5053.62,1199.56 5055.03,1200.04 5055.64,1200.73"/>
    </edge>
    <edge id=":2836320080_5" function="internal">
        <lane id=":2836320080_5_0" index="0" speed="13.41" length="2.41" shape="5055.64,1200.73 5055.45,1201.64 5054.47,1202.75"/>
    </edge>
    <edge id=":2836320416_0" function="internal">
        <lane id=":2836320416_0_0" index="0" disallow="tram rail_urban rail rail_electric ship" speed="17.82" length="2.63" shape="5129.16,1170.76 5130.24,1168.45"/>
        <lane id=":2836320416_0_1" index="1" disallow="tram rail_urban rail rail_electric ship" speed="17.82" length="2.63" shape="5129.16,1170.76 5131.82,1171.35"/>
    </edge>
    <edge id=":2836320552_0" function="internal">
        <lane id=":2836320552_0_0" index="0" allow="bicycle" speed="5.56" length="1.61" width="1.00" shape="3685.72,832.34 3685.76,831.85 3685.93,831.60 3686.24,831.58 3686.68,831.80"/>
    </edge>
    <edge id=":2836320553_0" function="internal">
        <lane id=":2836320553_0_0" index="0" allow="bicycle" speed="5.56" length="0.10" width="1.00" shape="3692.34,844.08 3692.32,844.05"/>
    </edge>
    <edge id=":2836320553_1" function="internal">
        <lane id=":2836320553_1_0" index="0" allow="bicycle" speed="5.56" length="0.80" width="1.00" shape="3692.34,844.08 3692.35,843.59 3692.50,843.32"/>
    </edge>
    <edge id=":2836320553_4" function="internal">
        <lane id=":2836320553_4_0" index="0" speed="5.56" length="0.80" width="1.00" shape="3692.50,843.32 3692.81,843.29 3693.27,843.48"/>
    </edge>
    <edge id=":2836320553_2" function="internal">
        <lane id=":2836320553_2_0" index="0" allow="bicycle" speed="5.56" length="0.10" width="1.00" shape="3693.28,843.51 3693.27,843.48"/>
    </edge>
    <edge id=":2836320553_3" function="internal">
        <lane id=":2836320553_3_0" index="0" allow="bicycle" speed="5.56" length="0.80" width="1.00" shape="3693.28,843.51 3693.25,844.01 3693.07,844.26"/>
    </edge>
    <edge id=":2836320553_5" function="internal">
        <lane id=":2836320553_5_0" index="0" speed="5.56" length="0.80" width="1.00" shape="3693.07,844.26 3692.77,844.28 3692.32,844.05"/>
    </edge>
    <edge id=":2836320554_0" function="internal">
        <lane id=":2836320554_0_0" index="0" allow="bicycle" speed="5.56" length="0.30" width="1.00" shape="3701.66,858.46 3701.50,858.21"/>
    </edge>
    <edge id=":2836320554_1" function="internal">
        <lane id=":2836320554_1_0" index="0" allow="bicycle" speed="5.56" length="0.18" width="1.00" shape="3701.66,858.46 3701.66,858.28"/>
    </edge>
    <edge id=":2836320554_4" function="internal">
        <lane id=":2836320554_4_0" index="0" speed="5.56" length="1.42" width="1.00" shape="3701.66,858.28 3701.66,857.96 3701.81,857.69 3702.12,857.66 3702.58,857.85"/>
    </edge>
    <edge id=":2836320554_2" function="internal">
        <lane id=":2836320554_2_0" index="0" allow="bicycle" speed="5.56" length="0.28" width="1.00" shape="3702.42,857.61 3702.58,857.85"/>
    </edge>
    <edge id=":2836320554_3" function="internal">
        <lane id=":2836320554_3_0" index="0" allow="bicycle" speed="5.56" length="0.18" width="1.00" shape="3702.42,857.61 3702.42,857.79"/>
    </edge>
    <edge id=":2836320554_5" function="internal">
        <lane id=":2836320554_5_0" index="0" speed="5.56" length="1.43" width="1.00" shape="3702.42,857.79 3702.41,858.11 3702.26,858.37 3701.95,858.40 3701.50,858.21"/>
    </edge>
    <edge id=":2836320583_0" function="internal">
        <lane id=":2836320583_0_0" index="0" allow="bicycle" speed="5.56" length="0.10" width="1.00" shape="5307.33,178.77 5307.33,178.77"/>
    </edge>
    <edge id=":2836320583_1" function="internal">
        <lane id=":2836320583_1_0" index="0" allow="bicycle" speed="5.56" length="0.80" width="1.00" shape="5307.33,178.77 5306.88,178.98 5306.58,178.96"/>
    </edge>
    <edge id=":2836320583_4" function="internal">
        <lane id=":2836320583_4_0" index="0" speed="5.56" length="0.80" width="1.00" shape="5306.58,178.96 5306.41,178.70 5306.39,178.21"/>
    </edge>
    <edge id=":2836320583_2" function="internal">
        <lane id=":2836320583_2_0" index="0" allow="bicycle" speed="5.56" length="0.10" width="1.00" shape="5306.39,178.21 5306.39,178.21"/>
    </edge>
    <edge id=":2836320583_3" function="internal">
        <lane id=":2836320583_3_0" index="0" allow="bicycle" speed="5.56" length="0.80" width="1.00" shape="5306.39,178.21 5306.83,177.99 5307.14,178.01"/>
    </edge>
    <edge id=":2836320583_5" function="internal">
        <lane id=":2836320583_5_0" index="0" speed="5.56" length="0.80" width="1.00" shape="5307.14,178.01 5307.31,178.27 5307.33,178.77"/>
    </edge>
    <edge id=":2836320584_0" function="internal">
        <lane id=":2836320584_0_0" index="0" allow="bicycle" speed="5.56" length="0.10" width="1.00" shape="5319.35,158.47 5319.39,158.41"/>
    </edge>
    <edge id=":2836320584_1" function="internal">
        <lane id=":2836320584_1_0" index="0" allow="bicycle" speed="5.56" length="0.80" width="1.00" shape="5319.35,158.47 5318.88,158.62 5318.58,158.56"/>
    </edge>
    <edge id=":2836320584_4" function="internal">
        <lane id=":2836320584_4_0" index="0" speed="5.56" length="0.80" width="1.00" shape="5318.58,158.56 5318.44,158.29 5318.48,157.79"/>
    </edge>
    <edge id=":2836320584_2" function="internal">
        <lane id=":2836320584_2_0" index="0" allow="bicycle" speed="5.56" length="0.10" width="1.00" shape="5318.44,157.85 5318.48,157.79"/>
    </edge>
    <edge id=":2836320584_3" function="internal">
        <lane id=":2836320584_3_0" index="0" allow="bicycle" speed="5.56" length="0.80" width="1.00" shape="5318.44,157.85 5318.89,157.63 5319.19,157.65"/>
    </edge>
    <edge id=":2836320584_5" function="internal">
        <lane id=":2836320584_5_0" index="0" speed="5.56" length="0.80" width="1.00" shape="5319.19,157.65 5319.36,157.91 5319.39,158.41"/>
    </edge>
    <edge id=":2836320585_0" function="internal">
        <lane id=":2836320585_0_0" index="0" allow="bicycle" speed="5.56" length="1.61" width="1.00" shape="5328.07,145.44 5328.54,145.28 5328.84,145.34 5328.97,145.62 5328.94,146.11"/>
    </edge>
    <edge id=":32031171#0-AddedOffRampNode_0" function="internal">
        <lane id=":32031171#0-AddedOffRampNode_0_0" index="0" allow="private emergency authority army vip passenger hov taxi bus coach delivery truck trailer motorcycle evehicle custom1 custom2" speed="31.29" length="3.36" shape="4290.92,2080.65 4294.73,2078.41"/>
        <lane id=":32031171#0-AddedOffRampNode_0_1" index="1" allow="private emergency authority army vip passenger hov taxi bus coach delivery truck trailer motorcycle evehicle custom1 custom2" speed="31.29" length="3.36" shape="4290.92,2080.65 4293.78,2081.57"/>
        <lane id=":32031171#0-AddedOffRampNode_0_2" index="2" allow="private emergency authority army vip passenger hov taxi bus coach delivery truck trailer motorcycle evehicle custom1 custom2" speed="31.29" length="3.36" shape="4289.96,2083.81 4292.82,2084.73"/>
        <lane id=":32031171#0-AddedOffRampNode_0_3" index="3" allow="private emergency authority army vip passenger hov taxi bus coach delivery truck trailer motorcycle evehicle custom1 custom2" speed="31.29" length="3.36" shape="4289.01,2086.97 4291.87,2087.88"/>
    </edge>
    <edge id=":32031171#2-AddedOnRampNode_0" function="internal">
        <lane id=":32031171#2-AddedOnRampNode_0_0" index="0" allow="private emergency authority army vip passenger hov taxi bus coach delivery truck trailer motorcycle evehicle custom1 custom2" speed="31.29" length="3.00" shape="5542.43,2451.09 5545.32,2451.89"/>
        <lane id=":32031171#2-AddedOnRampNode_0_1" index="1" allow="private emergency authority army vip passenger hov taxi bus coach delivery truck trailer motorcycle evehicle custom1 custom2" speed="31.29" length="3.00" shape="5541.50,2454.25 5544.39,2455.05"/>
        <lane id=":32031171#2-AddedOnRampNode_0_2" index="2" allow="private emergency authority army vip passenger hov taxi bus coach delivery truck trailer motorcycle evehicle custom1 custom2" speed="31.29" length="3.00" shape="5540.57,2457.42 5543.46,2458.22"/>
    </edge>
    <edge id=":3740802212_0" function="internal">
        <lane id=":3740802212_0_0" index="0" disallow="tram rail_urban rail rail_electric ship" speed="11.18" length="9.96" shape="5262.56,1197.45 5272.22,1199.87"/>
    </edge>
    <edge id=":3740802212_1" function="internal">
        <lane id=":3740802212_1_0" index="0" disallow="tram rail_urban rail rail_electric ship" speed="11.18" length="9.99" shape="5262.57,1201.27 5265.42,1200.36 5267.42,1199.62 5269.40,1199.35 5272.22,1199.87"/>
    </edge>
    <edge id=":3740802222_0" function="internal">
        <lane id=":3740802222_0_0" index="0" disallow="tram rail_urban rail rail_electric ship" speed="12.53" length="6.89" shape="5278.82,1258.46 5277.10,1259.48 5276.12,1260.47 5275.34,1261.69 5274.23,1263.42"/>
    </edge>
    <edge id=":3740802222_1" function="internal">
        <lane id=":3740802222_1_0" index="0" disallow="tram rail_urban rail rail_electric ship" speed="11.18" length="6.91" shape="5278.82,1258.46 5276.96,1259.27 5275.60,1259.59 5274.17,1259.69 5272.12,1259.84"/>
    </edge>
    <edge id=":3740802525_0" function="internal">
        <lane id=":3740802525_0_0" index="0" disallow="tram rail_urban rail rail_electric ship" speed="13.89" length="5.14" shape="5269.26,1275.90 5268.60,1280.99"/>
    </edge>
    <edge id=":3740802526_0" function="internal">
        <lane id=":3740802526_0_0" index="0" disallow="tram rail_urban rail rail_electric ship" speed="12.53" length="0.30" shape="5267.48,1294.32 5267.45,1294.61"/>
    </edge>
    <edge id=":3740802527_0" function="internal">
        <lane id=":3740802527_0_0" index="0" disallow="tram rail_urban rail rail_electric ship" speed="12.53" length="0.29" shape="5203.74,1237.36 5204.03,1237.30"/>
    </edge>
    <edge id=":3740802528_0" function="internal">
        <lane id=":3740802528_0_0" index="0" disallow="tram rail_urban rail rail_electric ship" speed="13.89" length="5.19" shape="5218.09,1234.71 5223.18,1233.69"/>
    </edge>
    <edge id=":3740802534_0" function="internal">
        <lane id=":3740802534_0_0" index="0" disallow="tram rail_urban rail rail_electric ship" speed="11.18" length="6.91" shape="5241.14,1215.57 5241.72,1213.62 5241.92,1212.24 5241.94,1210.82 5241.98,1208.76"/>
    </edge>
    <edge id=":3740802534_1" function="internal">
        <lane id=":3740802534_1_0" index="0" disallow="tram rail_urban rail rail_electric ship" speed="11.18" length="6.87" shape="5241.14,1215.57 5241.93,1213.76 5242.82,1212.70 5244.01,1211.86 5245.68,1210.67"/>
    </edge>
    <edge id=":3740802542_0" function="internal">
        <lane id=":3740802542_0_0" index="0" disallow="tram rail_urban rail rail_electric ship" speed="12.53" length="0.29" shape="5257.46,1294.35 5257.48,1294.06"/>
    </edge>
    <edge id=":3740802543_0" function="internal">
        <lane id=":3740802543_0_0" index="0" disallow="tram rail_urban rail rail_electric ship" speed="13.89" length="5.12" shape="5258.93,1280.18 5259.27,1275.08"/>
    </edge>
    <edge id=":3740802547_0" function="internal">
        <lane id=":3740802547_0_0" index="0" disallow="tram rail_urban rail rail_electric ship" speed="12.53" length="7.28" shape="5256.84,1262.51 5255.84,1260.60 5255.04,1259.34 5254.02,1258.26 5252.36,1256.89"/>
    </edge>
    <edge id=":3740802547_1" function="internal">
        <lane id=":3740802547_1_0" index="0" disallow="tram rail_urban rail rail_electric ship" speed="11.18" length="7.23" shape="5259.12,1259.06 5256.98,1258.75 5255.48,1258.55 5254.10,1258.07 5252.36,1256.89"/>
    </edge>
    <edge id=":3740802553_0" function="internal">
        <lane id=":3740802553_0_0" index="0" disallow="tram rail_urban rail rail_electric ship" speed="13.89" length="5.07" shape="5224.76,1244.25 5219.76,1245.15"/>
    </edge>
    <edge id=":3740802554_0" function="internal">
        <lane id=":3740802554_0_0" index="0" disallow="tram rail_urban rail rail_electric ship" speed="12.53" length="7.11" shape="5243.64,1247.90 5242.25,1246.40 5241.02,1245.67 5239.57,1245.25 5237.53,1244.66"/>
    </edge>
    <edge id=":3740802554_1" function="internal">
        <lane id=":3740802554_1_0" index="0" disallow="tram rail_urban rail rail_electric ship" speed="11.18" length="7.15" shape="5243.64,1247.90 5242.40,1246.19 5241.70,1244.92 5241.14,1243.57 5240.32,1241.61"/>
    </edge>
    <edge id=":3740802558_0" function="internal">
        <lane id=":3740802558_0_0" index="0" disallow="tram rail_urban rail rail_electric ship" speed="12.53" length="7.22" shape="5234.24,1227.50 5235.93,1226.16 5237.13,1225.23 5238.05,1224.10 5238.88,1222.18"/>
    </edge>
    <edge id=":3740802558_1" function="internal">
        <lane id=":3740802558_1_0" index="0" disallow="tram rail_urban rail rail_electric ship" speed="11.18" length="7.25" shape="5237.93,1229.32 5238.01,1227.17 5238.05,1225.68 5238.27,1224.23 5238.88,1222.18"/>
    </edge>
    <edge id=":3740802597_0" function="internal">
        <lane id=":3740802597_0_0" index="0" disallow="tram rail_urban rail rail_electric ship" speed="11.18" length="5.53" shape="4601.93,2060.58 4600.44,2059.88 4599.37,2059.46 4598.25,2059.32 4596.65,2059.47"/>
    </edge>
    <edge id=":3740802597_1" function="internal">
        <lane id=":3740802597_1_0" index="0" disallow="tram rail_urban rail rail_electric ship" speed="12.53" length="5.31" shape="4600.78,2056.35 4599.79,2057.60 4598.77,2058.53 4597.72,2059.16 4596.65,2059.47"/>
    </edge>
    <edge id=":3740802603_0" function="internal">
        <lane id=":3740802603_0_0" index="0" disallow="tram rail_urban rail rail_electric ship" speed="12.53" length="5.57" shape="4585.83,2039.51 4587.23,2040.39 4588.26,2040.96 4589.36,2041.19 4590.97,2041.09"/>
    </edge>
    <edge id=":3740802603_1" function="internal">
        <lane id=":3740802603_1_0" index="0" disallow="tram rail_urban rail rail_electric ship" speed="13.89" length="5.59" shape="4586.29,2043.85 4587.48,2042.68 4588.36,2041.91 4589.38,2041.42 4590.97,2041.09"/>
    </edge>
    <edge id=":3740802606_0" function="internal">
        <lane id=":3740802606_0_0" index="0" disallow="tram rail_urban rail rail_electric ship" speed="9.73" length="5.68" shape="4597.52,2038.32 4597.95,2039.96 4598.29,2041.08 4598.81,2042.11 4599.81,2043.44"/>
    </edge>
    <edge id=":3740802606_1" function="internal">
        <lane id=":3740802606_1_0" index="0" disallow="tram rail_urban rail rail_electric ship" speed="13.89" length="6.21" shape="4594.39,2040.84 4596.20,2041.23 4597.48,2041.54 4598.57,2042.16 4599.81,2043.44"/>
    </edge>
    <edge id=":3740802610_0" function="internal">
        <lane id=":3740802610_0_0" index="0" disallow="tram rail_urban rail rail_electric ship" speed="12.53" length="5.55" shape="4602.67,2047.93 4603.24,2049.42 4603.92,2050.31 4604.89,2050.98 4606.31,2051.82"/>
    </edge>
    <edge id=":3740802610_1" function="internal">
        <lane id=":3740802610_1_0" index="0" disallow="tram rail_urban rail rail_electric ship" speed="13.89" length="5.60" shape="4602.67,2047.93 4603.04,2049.52 4603.04,2050.65 4602.74,2051.79 4602.23,2053.37"/>
    </edge>
    <edge id=":3740802616_0" function="internal">
        <lane id=":3740802616_0_0" index="0" disallow="tram rail_urban rail rail_electric ship" speed="11.18" length="0.10" shape="4732.95,2073.11 4732.95,2073.11"/>
    </edge>
    <edge id=":3740802628_0" function="internal">
        <lane id=":3740802628_0_0" index="0" disallow="tram rail_urban rail rail_electric ship" speed="11.18" length="0.27" shape="5006.70,1952.33 5006.91,1952.16"/>
    </edge>
    <edge id=":3740802652_0" function="internal">
        <lane id=":3740802652_0_0" index="0" disallow="tram rail_urban rail rail_electric ship" speed="11.18" length="5.39" shape="4583.69,2051.36 4583.28,2049.86 4582.70,2048.94 4581.81,2048.21 4580.47,2047.33"/>
    </edge>
    <edge id=":3740802652_1" function="internal">
        <lane id=":3740802652_1_0" index="0" disallow="tram rail_urban rail rail_electric ship" speed="12.53" length="5.46" shape="4583.69,2051.36 4583.48,2049.78 4583.59,2048.68 4584.00,2047.61 4584.69,2046.15"/>
    </edge>
    <edge id=":3740802656_0" function="internal">
        <lane id=":3740802656_0_0" index="0" disallow="tram rail_urban rail rail_electric ship" speed="12.53" length="5.20" shape="4523.41,1996.47 4522.58,1995.17 4521.90,1994.32 4521.02,1993.73 4519.60,1993.22"/>
    </edge>
    <edge id=":3740802656_1" function="internal">
        <lane id=":3740802656_1_0" index="0" disallow="tram rail_urban rail rail_electric ship" speed="13.89" length="5.03" shape="4524.39,1992.20 4523.09,1992.88 4521.86,1993.27 4520.70,1993.39 4519.60,1993.22"/>
    </edge>
    <edge id=":3740802661_0" function="internal">
        <lane id=":3740802661_0_0" index="0" disallow="tram rail_urban rail rail_electric ship" speed="12.53" length="5.34" shape="4510.53,1980.79 4510.66,1979.25 4510.47,1978.19 4509.95,1977.18 4509.11,1975.84"/>
    </edge>
    <edge id=":3740802661_1" function="internal">
        <lane id=":3740802661_1_0" index="0" disallow="tram rail_urban rail rail_electric ship" speed="13.89" length="5.33" shape="4510.53,1980.79 4510.87,1979.29 4511.38,1978.34 4512.20,1977.56 4513.43,1976.57"/>
    </edge>
    <edge id=":3740802664_0" function="internal">
        <lane id=":3740802664_0_0" index="0" allow="delivery bicycle pedestrian" speed="9.73" length="5.31" shape="4526.35,1976.84 4527.61,1977.75 4528.59,1978.18 4529.68,1978.38 4531.24,1978.60"/>
    </edge>
    <edge id=":3740802664_1" function="internal">
        <lane id=":3740802664_1_0" index="0" disallow="tram rail_urban rail rail_electric ship" speed="13.89" length="6.09" shape="4526.35,1976.84 4527.64,1978.04 4528.31,1979.08 4528.73,1980.29 4529.28,1982.02"/>
    </edge>
    <edge id=":3740802666_0" function="internal">
        <lane id=":3740802666_0_0" index="0" disallow="tram rail_urban rail rail_electric ship" speed="12.53" length="5.59" shape="4529.29,1985.18 4529.30,1986.79 4529.60,1987.88 4530.22,1988.88 4531.18,1990.24"/>
    </edge>
    <edge id=":3740802666_1" function="internal">