<?xml version="1.0" encoding="UTF-8"?>

<!-- generated on Tue Aug 21 23:50:44 2018 by SUMO polyconvert Version 0.30.0
<?xml version="1.0" encoding="UTF-8"?>

<configuration xmlns:xsi="http://www.w3.org/2001/XMLSchema-instance" xsi:noNamespaceSchemaLocation="http://sumo.dlr.de/xsd/polyconvertConfiguration.xsd">

    <input>
        <net-file value="flpoly.net.xml"/>
        <osm-files value="flpoly.osm"/>
        <type-file value="osm.typ.xml"/>
    </input>

    <output>
        <output-file value="flpoly.poly.xml"/>
    </output>

    <processing>
        <poi-layer-offset value="5"/>
    </processing>

</configuration>
-->

<additional xmlns:xsi="http://www.w3.org/2001/XMLSchema-instance" xsi:noNamespaceSchemaLocation="http://sumo.dlr.de/xsd/additional_file.xsd">
    <location netOffset="-411782.56,-3112256.38" convBoundary="-2298.51,-4545.41,7143.63,2735.79" origBoundary="-81.921362,28.091770,-81.825743,28.157686" projParameter="+proj=utm +zone=17 +ellps=WGS84 +datum=WGS84 +units=m +no_defs"/>

    <poly id="467810553" type="building" color="255,77,255" fill="1" layer="-1.00" shape="4689.06,1872.26 4696.04,1891.61 4688.33,1917.86 4678.98,1937.32 4662.30,1963.11 4632.96,1984.80 4615.37,1994.37 4598.03,2000.38 4590.39,2000.75 4577.32,1995.86 4569.47,1984.65 4566.92,1975.20 4573.24,1956.92 4580.98,1934.33 4600.82,1907.47 4633.79,1878.42 4653.23,1870.42 4673.22,1866.09 4689.06,1872.26"/>
    <poly id="467810554" type="building" color="255,77,255" fill="1" layer="-1.00" shape="4834.43,1930.50 4853.02,1945.78 4858.60,1948.73 4861.35,1953.87 4864.46,1952.46 4865.68,1951.80 4863.27,1946.19 4867.61,1943.34 4926.58,1912.46 4930.85,1920.63 4929.18,1921.58 4928.29,1922.29 4930.94,1926.80 4870.38,1958.49 4854.21,1967.73 4826.60,1942.78 4830.88,1938.89 4829.99,1938.06 4828.57,1936.74 4834.43,1930.50"/>
    <poly id="467810963" type="building" color="255,77,255" fill="1" layer="-1.00" shape="5010.93,1796.65 5028.33,1777.27 5031.53,1773.69 5049.74,1753.48 5061.54,1764.22 5063.14,1765.67 5075.24,1776.92 5062.46,1792.72 5036.81,1819.43 5024.57,1808.77 5010.93,1796.65"/>
    <poly id="467810964" type="building" color="255,77,255" fill="1" layer="-1.00" shape="5090.39,1935.22 5113.85,1925.48 5121.16,1942.92 5097.70,1952.66 5090.39,1935.22"/>
    <poly id="467810966" type="building" color="255,77,255" fill="1" layer="-1.00" shape="5137.08,1881.54 5154.56,1886.78 5162.07,1862.43 5144.13,1856.90 5139.96,1871.94 5137.08,1881.54"/>
    <poly id="467810971" type="water" color="181,209,209" fill="1" layer="-4.00" shape="5092.16,1357.27 5111.58,1371.10 5131.64,1387.08 5146.04,1402.44 5160.63,1418.47 4745.25,1879.24 4735.81,1928.89 4697.14,2000.00 4636.87,2037.62 4620.44,2040.58 4606.07,2034.80 4598.03,2000.38 4615.37,1994.37 4632.96,1984.80 4662.30,1963.11 4678.98,1937.32 4688.33,1917.86 4696.04,1891.61 4689.06,1872.26 4673.22,1866.09 4653.23,1870.42 4633.79,1878.42 4600.82,1907.47 4580.98,1934.33 4573.24,1956.92 4566.92,1975.20 4533.20,1969.50 4526.52,1954.34 4527.06,1944.15 4541.60,1906.35 4576.04,1868.91 4621.18,1831.40 4666.54,1824.88 5092.16,1357.27"/>
    <poly id="467811275" type="water" color="181,209,209" fill="0" layer="-4.00" shape="4813.02,1640.54 4837.95,1655.20 4863.92,1676.44 4885.67,1698.47 4906.18,1724.31"/>
    <poly id="467811276" type="water" color="181,209,209" fill="0" layer="-4.00" shape="4893.15,1548.35 4911.89,1559.12 4928.24,1571.35 4945.26,1585.61 4967.27,1606.42 4988.71,1634.30"/>
    <poly id="467811277" type="water" color="181,209,209" fill="0" layer="-4.00" shape="4975.44,1458.60 5002.83,1475.29 5028.67,1496.46 5050.95,1519.63 5070.53,1543.43"/>
    <poly id="467811279" type="water" color="181,209,209" fill="0" layer="-4.00" shape="4730.50,1729.45 4751.45,1742.80 4767.14,1754.15 4781.88,1766.44 4794.17,1777.90 4805.68,1790.90 4824.58,1814.52"/>
    <poly id="468650669" type="leisure" color="77,255,77" fill="1" layer="-2.00" shape="5080.68,1539.89 5028.02,1593.95 5078.62,1643.70 5211.00,1655.91 5225.84,1596.74 5238.01,1513.69 5162.03,1445.27 5080.68,1539.89"/>
    <poly id="481476644" type="building" color="255,77,255" fill="1" layer="-1.00" shape="4967.67,1824.05 4998.09,1850.67 4995.24,1854.36 4992.41,1852.39 4988.39,1857.19 4986.59,1859.26 4984.66,1857.57 4963.82,1881.49 4961.04,1879.41 4942.36,1898.75 4937.34,1904.53 4950.64,1916.82 4962.54,1906.19 4972.35,1896.11 4975.14,1898.64 5002.29,1872.42 5025.07,1850.06 4986.28,1815.84 4979.37,1810.47 4967.67,1824.05"/>
    <poly id="502506661" type="water" color="181,209,209" fill="1" layer="-4.00" shape="5264.77,2208.61 5258.03,2204.86 5255.09,2198.32 5246.25,2157.26 5241.40,2123.88 5245.29,2113.64 5255.18,2116.19 5265.91,2124.24 5299.32,2157.54 5315.35,2170.92 5328.23,2186.42 5329.39,2202.00 5325.76,2209.36 5316.67,2209.56 5271.10,2209.61 5264.77,2208.61"/>
    <poly id="505127436" type="leisure" color="77,255,77" fill="1" layer="-2.00" shape="4930.27,1885.53 4921.13,1876.94 4926.36,1872.32 4930.73,1876.22 4937.93,1869.09 4937.50,1865.43 4943.70,1865.91 4943.87,1872.20 4930.27,1885.53"/>
    <poly id="507676805" type="building" color="255,77,255" fill="1" layer="-1.00" shape="5052.99,1967.92 5059.49,1965.39 5052.91,1948.69 5046.41,1951.23 5052.99,1967.92"/>
    <poly id="507676806" type="building" color="255,77,255" fill="1" layer="-1.00" shape="5059.74,1954.72 5065.35,1968.29 5084.13,1960.63 5078.52,1947.05 5059.74,1954.72"/>
    <poly id="507676807" type="building" color="255,77,255" fill="1" layer="-1.00" shape="5060.25,1951.70 5077.33,1944.67 5074.31,1937.42 5057.23,1944.44 5060.25,1951.70"/>
    <poly id="515362407" type="water" color="181,209,209" fill="1" layer="-4.00" shape="4557.32,1472.58 4536.01,1475.61 4531.99,1466.47 4528.59,1433.48 4531.10,1377.39 4544.64,1355.02 4567.12,1330.49 4608.92,1317.62 4699.18,1306.51 4717.15,1315.04 4720.96,1332.30 4721.08,1349.07 4706.44,1365.94 4679.20,1388.14 4658.78,1405.32 4642.47,1409.10 4626.65,1406.07 4597.74,1414.39 4577.48,1418.20 4570.40,1422.70 4564.16,1434.54 4557.32,1472.58"/>
    <poly id="515362410" type="leisure" color="77,255,77" fill="1" layer="-2.00" shape="4526.10,1602.50 4513.41,1597.09 4521.78,1549.34 4549.00,1563.30 4526.10,1602.50"/>
    <poly id="515362441" type="parking" color="184,184,179" fill="1" layer="-1.00" shape="4681.95,1507.34 4650.88,1480.18 4663.23,1467.39 4683.05,1448.77 4703.48,1432.00 4725.74,1414.01 4750.78,1396.68 4773.06,1381.45 4798.90,1366.47 4832.62,1348.55 4867.73,1379.10 4803.82,1410.85 4768.55,1434.02 4712.75,1477.39 4681.95,1507.34"/>
    <poly id="515362448" type="parking" color="184,184,179" fill="1" layer="-1.00" shape="4560.59,1714.14 4526.94,1684.50 4538.05,1653.77 4549.45,1627.75 4569.98,1588.44 4583.40,1566.73 4596.82,1545.94 4607.12,1532.10 4620.17,1514.98 4635.32,1497.45 4667.14,1526.04 4658.65,1537.18 4637.37,1564.12 4623.42,1583.99 4607.42,1610.97 4592.33,1638.32 4574.56,1677.22 4560.59,1714.14"/>
    <poly id="515362477" type="water" color="181,209,209" fill="1" layer="-4.00" shape="4333.88,1834.95 4190.49,1819.71 3919.27,1754.03 3872.85,1746.49 3856.10,1761.81 3843.42,1755.09 3844.81,1728.87 3837.70,1692.77 3801.04,1647.43 3782.86,1609.84 3784.04,1553.76 3781.01,1422.77 3786.16,1405.44 3823.01,1402.03 3858.91,1412.78 3892.65,1416.74 3950.60,1417.90 4070.78,1427.00 4120.30,1428.23 4188.21,1422.51 4256.66,1416.79 4301.40,1411.75 4352.52,1415.07 4384.72,1423.75 4387.98,1438.92 4372.25,1448.47 4341.17,1449.21 4291.16,1453.75 4247.51,1464.53 4206.47,1471.12 4168.04,1475.05 4138.48,1466.88 4073.15,1465.24 4046.80,1463.33 4022.15,1478.18 3970.01,1480.65 3939.96,1478.24 3883.55,1471.82 3857.75,1472.53 3851.18,1586.30 3884.98,1599.67 3927.65,1598.85 3959.26,1599.68 4021.61,1625.96 4145.72,1671.20 4239.24,1711.42 4261.05,1740.08 4284.93,1765.08 4306.59,1774.87 4330.90,1785.18 4354.73,1803.36 4367.44,1813.22 4371.77,1829.96 4359.71,1838.96 4333.88,1834.95"/>
    <poly id="515362482" type="parking" color="184,184,179" fill="1" layer="-1.00" shape="4759.36,2048.08 4751.90,2018.57 4749.89,2013.54 4744.99,2008.92 4739.84,2006.73 4733.97,2005.85 4724.45,2009.13 4717.13,2017.43 4707.13,2027.65 4699.93,2034.32 4696.88,2040.76 4696.68,2049.61 4701.41,2058.03 4710.60,2062.61 4717.05,2062.69 4741.26,2060.16 4761.45,2055.70 4759.36,2048.08"/>
    <poly id="515362490" type="parking" color="184,184,179" fill="1" layer="-1.00" shape="4523.42,1877.10 4518.36,1879.96 4511.13,1880.87 4504.73,1879.01 4499.44,1875.11 4496.04,1869.11 4494.86,1861.46 4495.15,1836.83 4497.57,1816.51 4538.31,1822.70 4545.91,1827.37 4549.32,1833.82 4549.84,1842.27 4547.90,1848.18 4541.77,1855.36 4523.42,1877.10"/>
    <poly id="515362497" type="parking" color="184,184,179" fill="1" layer="-1.00" shape="4891.40,2014.06 4854.75,1980.64 4877.99,1969.87 4902.65,1956.92 4936.29,1936.84 4958.83,1920.83 4982.22,1902.52 4999.35,1887.33 5008.06,1879.81 5022.65,1866.14 5033.70,1854.21 5066.17,1884.51 5066.12,1886.90 5048.46,1904.68 5029.36,1922.43 5009.79,1939.21 4990.08,1954.48 4974.09,1965.92 4952.07,1980.68 4932.01,1992.88 4915.61,2001.90 4891.40,2014.06"/>
    <poly id="543965302" type="parking" color="184,184,179" fill="1" layer="-1.00" shape="4891.40,2014.06 4928.37,1997.01 4952.26,1982.69 5044.17,1910.87 5065.82,1885.95 5033.27,1851.78 4953.33,1925.19 4903.64,1953.90 4854.75,1980.64 4891.58,2016.23 4891.40,2014.06"/>
    <poly id="545951168" type="water" color="181,209,209" fill="0" layer="-4.00" shape="4975.07,1794.82 4963.14,1784.30 4957.48,1783.94 4884.11,1865.74"/>
    <poly id="545951169" type="forest" color="140,196,107" fill="1" layer="-4.00" shape="4689.83,2115.15 4748.27,2110.56 4833.47,2091.09 4894.64,2064.21 4949.69,2026.09 5013.63,1980.84 5031.46,1967.87 5064.21,1981.54 5093.70,1980.02 5137.20,1965.87 5095.72,2103.51 5080.98,2119.50 5063.70,2135.46 5044.06,2150.01 5021.02,2163.96 5002.99,2172.31 4960.03,2186.70 4915.61,2192.81 4689.83,2115.15"/>
    <poly id="545951176" type="leisure" color="77,255,77" fill="1" layer="-2.00" shape="5168.69,1571.81 5194.39,1594.62 5221.12,1564.43 5196.20,1541.80 5168.69,1571.81"/>
    <poly id="545951176#1" type="sport" color="79,230,125" fill="1" layer="-2.00" shape="5168.69,1571.81 5194.39,1594.62 5221.12,1564.43 5196.20,1541.80 5168.69,1571.81"/>
    <poly id="545951177" type="farm" color="242,242,204" fill="1" layer="-3.00" shape="4495.18,1813.24 4499.57,1782.69 4506.33,1750.41 4517.36,1709.72 4523.73,1711.42 4556.59,1743.78 4609.15,1617.01 4676.71,1518.62 4811.07,1632.54 4659.43,1808.59 4648.83,1807.39 4648.74,1809.35 4620.19,1818.13 4601.16,1828.22 4495.18,1813.24"/>
    <poly id="545951182" type="leisure" color="77,255,77" fill="1" layer="-2.00" shape="4599.12,1761.82 4753.96,1592.32 4675.80,1522.58 4644.20,1561.98 4610.47,1614.74 4609.15,1617.01 4590.46,1653.54 4572.21,1698.47 4562.66,1728.14 4599.12,1761.82"/>
    <poly id="545963426" type="building" color="255,153,26" fill="0" layer="-1.00" shape="608.83,2735.79 592.95,2725.95 586.27,1816.31 585.34,1474.64 589.86,1086.29 773.83,958.63 1000.37,1030.87 1651.95,1237.31 2550.01,1511.73 3013.27,1651.99 3437.44,1778.93 3952.68,1935.37 4386.30,2060.96 4739.13,2159.61 5020.83,2256.16 5811.19,2252.24 6238.69,2488.77 6981.12,2487.60 7143.63,2449.56"/>
    <poly id="566223261" type="leisure" color="77,255,77" fill="1" layer="-2.00" shape="5137.56,1612.77 5159.80,1589.76 5175.63,1604.92 5165.69,1615.20 5157.09,1606.98 5144.78,1619.69 5137.56,1612.77"/>
    <poly id="566223261#1" type="sport" color="79,230,125" fill="1" layer="-2.00" shape="5137.56,1612.77 5159.80,1589.76 5175.63,1604.92 5165.69,1615.20 5157.09,1606.98 5144.78,1619.69 5137.56,1612.77"/>
    <poly id="576117230" type="leisure" color="77,255,77" fill="1" layer="-2.00" shape="5215.59,1555.36 5224.91,1545.67 5225.45,1539.41 5207.73,1524.21 5195.75,1537.69 5215.59,1555.36"/>
    <poly id="576117230#1" type="sport" color="79,230,125" fill="1" layer="-2.00" shape="5215.59,1555.36 5224.91,1545.67 5225.45,1539.41 5207.73,1524.21 5195.75,1537.69 5215.59,1555.36"/>
    <poly id="614564317" type="farm" color="242,242,204" fill="1" layer="-3.00" shape="4761.30,2058.58 4813.46,2046.59 4866.02,2025.37 4833.99,1988.80 4841.65,1984.45 4800.75,1947.37 4958.87,1772.06 4906.18,1724.31 4824.58,1814.52 4753.73,1885.22 4738.30,1953.91 4761.30,2058.58"/>
    <poi id="4744107986" type="building" color="255,153,26" layer="4.00" x="5139.45" y="1386.76"/>
    <poi id="4744107987" type="building" color="255,153,26" layer="4.00" x="5132.28" y="1380.00"/>
    <poi id="4744107988" type="building" color="255,153,26" layer="4.00" x="5125.40" y="1374.41"/>
    <poi id="4971370265" type="shop" color="255,153,26" layer="4.00" x="5034.16" y="1808.62"/>
    <poi id="4971370302" type="building" color="255,153,26" layer="4.00" x="4962.29" y="1906.26"/>
    <poi id="4971370303" type="building" color="255,153,26" layer="4.00" x="4942.74" y="1898.67"/>
    <poi id="4971370304" type="building" color="255,153,26" layer="4.00" x="5001.77" y="1875.07"/>
    <poi id="4971370305" type="building" color="255,153,26" layer="4.00" x="4986.40" y="1851.79"/>
    <poi id="4971370306" type="building" color="255,153,26" layer="4.00" x="4986.74" y="1815.37"/>
    <poi id="4971370434" type="building" color="255,153,26" layer="4.00" x="4682.77" y="1888.24"/>
    <poi id="4971370435" type="building" color="255,153,26" layer="4.00" x="5294.61" y="1764.29"/>
    <poi id="5033202876" type="building" color="255,153,26" layer="4.00" x="5054.78" y="1837.62"/>
    <poi id="5033203528" type="building" color="255,153,26" layer="4.00" x="5005.82" y="1228.84"/>
    <poi id="5033203529" type="building" color="255,153,26" layer="4.00" x="5017.39" y="1225.22"/>
    <poi id="5033203530" type="building" color="255,153,26" layer="4.00" x="5019.88" y="1233.92"/>
    <poi id="5033203531" type="building" color="255,153,26" layer="4.00" x="5007.98" y="1237.15"/>
    <poi id="5276494090" type="building" color="255,153,26" layer="4.00" x="4930.48" y="1923.58"/>
    <poi id="5276494091" type="building" color="255,153,26" layer="4.00" x="4828.32" y="1938.90"/>
    <poi id="5276494092" type="building" color="255,153,26" layer="4.00" x="4862.65" y="1951.44"/>
    <poi id="5276494093" type="building" color="255,153,26" layer="4.00" x="4872.92" y="1960.86"/>
    <poi id="5452315653" type="leisure" color="77,255,77" layer="3.00" x="5180.25" y="1625.17"/>
    <poi id="5526592479" type="building" color="255,153,26" layer="4.00" x="4971.39" y="1815.42"/>
</additional>
