<?xml version="1.0" encoding="UTF-8"?>

<!-- generated on Tue 04 Sep 2018 08:30:49 AM UTC by Netedit Version 0.30.0
<?xml version="1.0" encoding="UTF-8"?>

<configuration xmlns:xsi="http://www.w3.org/2001/XMLSchema-instance" xsi:noNamespaceSchemaLocation="http://sumo.dlr.de/xsd/netconvertConfiguration.xsd">

    <input>
        <sumo-net-file value="flpoly.net.xml"/>
    </input>

    <output>
        <output-file value="flpoly.net.xml"/>
    </output>

    <processing>
        <no-turnarounds value="true"/>
        <offset.disable-normalization value="true"/>
        <lefthand value="false"/>
        <junctions.corner-detail value="0"/>
        <rectangular-lane-cut value="false"/>
    </processing>

</configuration>
-->

<net version="0.27" xmlns:xsi="http://www.w3.org/2001/XMLSchema-instance" xsi:noNamespaceSchemaLocation="http://sumo.dlr.de/xsd/net_file.xsd">

    <location netOffset="-411782.56,-3112256.38" convBoundary="4417.87,1111.45,5308.76,2085.84" origBoundary="-81.898369,28.133266,-81.826609,28.157407" projParameter="+proj=utm +zone=17 +ellps=WGS84 +datum=WGS84 +units=m +no_defs"/>

    <type id="highway.bridleway" priority="1" numLanes="1" speed="2.78" allow="pedestrian" oneway="1" width="2.00"/>
    <type id="highway.bus_guideway" priority="1" numLanes="1" speed="8.33" allow="bus" oneway="1"/>
    <type id="highway.cycleway" priority="1" numLanes="1" speed="5.56" allow="bicycle" oneway="0" width="1.00"/>
    <type id="highway.footway" priority="1" numLanes="1" speed="2.78" allow="pedestrian" oneway="1" width="2.00"/>
    <type id="highway.ford" priority="1" numLanes="1" speed="2.78" allow="army" oneway="0"/>
    <type id="highway.living_street" priority="3" numLanes="1" speed="2.78" disallow="tram rail_urban rail rail_electric ship" oneway="0"/>
    <type id="highway.motorway" priority="13" numLanes="2" speed="44.44" allow="private emergency authority army vip passenger hov taxi bus coach delivery truck trailer motorcycle evehicle custom1 custom2" oneway="1"/>
    <type id="highway.motorway_link" priority="12" numLanes="1" speed="22.22" allow="private emergency authority army vip passenger hov taxi bus coach delivery truck trailer motorcycle evehicle custom1 custom2" oneway="1"/>
    <type id="highway.path" priority="1" numLanes="1" speed="2.78" allow="bicycle pedestrian" oneway="1" width="2.00"/>
    <type id="highway.pedestrian" priority="1" numLanes="1" speed="2.78" allow="pedestrian" oneway="1" width="2.00"/>
    <type id="highway.primary" priority="9" numLanes="2" speed="27.78" disallow="tram rail_urban rail rail_electric ship" oneway="0"/>
    <type id="highway.primary_link" priority="8" numLanes="1" speed="22.22" disallow="tram rail_urban rail rail_electric ship" oneway="0"/>
    <type id="highway.raceway" priority="14" numLanes="2" speed="83.33" allow="vip" oneway="0"/>
    <type id="highway.residential" priority="4" numLanes="1" speed="13.89" disallow="tram rail_urban rail rail_electric ship" oneway="0"/>
    <type id="highway.secondary" priority="7" numLanes="2" speed="27.78" disallow="tram rail_urban rail rail_electric ship" oneway="0"/>
    <type id="highway.secondary_link" priority="6" numLanes="1" speed="22.22" disallow="tram rail_urban rail rail_electric ship" oneway="0"/>
    <type id="highway.service" priority="2" numLanes="1" speed="5.56" allow="delivery bicycle pedestrian" oneway="0"/>
    <type id="highway.services" priority="1" numLanes="1" speed="8.33" disallow="tram rail_urban rail rail_electric ship" oneway="0"/>
    <type id="highway.stairs" priority="1" numLanes="1" speed="1.39" allow="pedestrian" oneway="1" width="2.00"/>
    <type id="highway.step" priority="1" numLanes="1" speed="1.39" allow="pedestrian" oneway="1" width="2.00"/>
    <type id="highway.steps" priority="1" numLanes="1" speed="1.39" allow="pedestrian" oneway="1" width="2.00"/>
    <type id="highway.tertiary" priority="6" numLanes="1" speed="22.22" disallow="tram rail_urban rail rail_electric ship" oneway="0"/>
    <type id="highway.tertiary_link" priority="5" numLanes="1" speed="22.22" disallow="tram rail_urban rail rail_electric ship" oneway="0"/>
    <type id="highway.track" priority="1" numLanes="1" speed="5.56" disallow="tram rail_urban rail rail_electric ship" oneway="0"/>
    <type id="highway.trunk" priority="11" numLanes="2" speed="27.78" disallow="tram rail_urban rail rail_electric bicycle pedestrian ship" oneway="0"/>
    <type id="highway.trunk_link" priority="10" numLanes="1" speed="22.22" disallow="tram rail_urban rail rail_electric bicycle pedestrian ship" oneway="0"/>
    <type id="highway.unclassified" priority="5" numLanes="1" speed="13.89" disallow="tram rail_urban rail rail_electric ship" oneway="0"/>
    <type id="highway.unsurfaced" priority="1" numLanes="1" speed="8.33" disallow="tram rail_urban rail rail_electric ship" oneway="0"/>
    <type id="railway.light_rail" priority="15" numLanes="1" speed="27.78" allow="rail_urban" oneway="1"/>
    <type id="railway.preserved" priority="15" numLanes="1" speed="27.78" allow="rail" oneway="1"/>
    <type id="railway.rail" priority="15" numLanes="1" speed="83.33" allow="rail rail_electric" oneway="1"/>
    <type id="railway.subway" priority="15" numLanes="1" speed="27.78" allow="rail_urban" oneway="1"/>
    <type id="railway.tram" priority="15" numLanes="1" speed="13.89" allow="tram" oneway="1"/>

    <edge id=":2836320080_0" function="internal">
        <lane id=":2836320080_0_0" index="0" disallow="tram rail_urban rail rail_electric ship" speed="13.41" length="0.53" shape="5054.98,1202.62 5054.47,1202.75"/>
    </edge>
    <edge id=":2836320080_1" function="internal">
        <lane id=":2836320080_1_0" index="0" disallow="tram rail_urban rail rail_electric ship" speed="13.41" length="2.44" shape="5054.98,1202.62 5053.52,1202.29 5052.83,1201.66"/>
    </edge>
    <edge id=":2836320080_4" function="internal">
        <lane id=":2836320080_4_0" index="0" speed="13.41" length="2.44" shape="5052.83,1201.66 5052.92,1200.73 5053.78,1199.50"/>
    </edge>
    <edge id=":2836320080_2" function="internal">
        <lane id=":2836320080_2_0" index="0" disallow="tram rail_urban rail rail_electric ship" speed="13.41" length="0.17" shape="5053.62,1199.56 5053.67,1199.54 5053.70,1199.53 5053.74,1199.52 5053.78,1199.50"/>
    </edge>
    <edge id=":2836320080_3" function="internal">
        <lane id=":2836320080_3_0" index="0" disallow="tram rail_urban rail rail_electric ship" speed="13.41" length="2.41" shape="5053.62,1199.56 5055.03,1200.04 5055.64,1200.73"/>
    </edge>
    <edge id=":2836320080_5" function="internal">
        <lane id=":2836320080_5_0" index="0" speed="13.41" length="2.41" shape="5055.64,1200.73 5055.45,1201.63 5054.47,1202.75"/>
    </edge>
    <edge id=":2836320416_0" function="internal">
        <lane id=":2836320416_0_0" index="0" disallow="tram rail_urban rail rail_electric ship" speed="17.81" length="2.63" shape="5129.16,1170.76 5130.23,1168.46"/>
        <lane id=":2836320416_0_1" index="1" disallow="tram rail_urban rail rail_electric ship" speed="17.81" length="2.63" shape="5129.16,1170.76 5131.81,1171.36"/>
    </edge>
    <edge id=":3740802212_0" function="internal">
        <lane id=":3740802212_0_0" index="0" disallow="tram rail_urban rail rail_electric ship" speed="11.18" length="9.96" shape="5262.56,1197.45 5272.22,1199.86"/>
    </edge>
    <edge id=":3740802212_1" function="internal">
        <lane id=":3740802212_1_0" index="0" disallow="tram rail_urban rail rail_electric ship" speed="11.18" length="9.99" shape="5262.57,1201.27 5265.42,1200.36 5267.42,1199.62 5269.41,1199.35 5272.22,1199.86"/>
    </edge>
    <edge id=":3740802222_0" function="internal">
        <lane id=":3740802222_0_0" index="0" disallow="tram rail_urban rail rail_electric ship" speed="12.54" length="6.89" shape="5278.82,1258.46 5277.10,1259.48 5276.12,1260.47 5275.34,1261.69 5274.23,1263.42"/>
    </edge>
    <edge id=":3740802222_1" function="internal">
        <lane id=":3740802222_1_0" index="0" disallow="tram rail_urban rail rail_electric ship" speed="11.18" length="6.91" shape="5278.82,1258.46 5276.96,1259.27 5275.60,1259.59 5274.17,1259.69 5272.12,1259.84"/>
    </edge>
    <edge id=":3740802525_0" function="internal">
        <lane id=":3740802525_0_0" index="0" disallow="tram rail_urban rail rail_electric ship" speed="13.89" length="5.14" shape="5269.26,1275.90 5269.00,1277.40 5268.85,1278.43 5268.73,1279.47 5268.60,1280.99"/>
    </edge>
    <edge id=":3740802526_0" function="internal">
        <lane id=":3740802526_0_0" index="0" disallow="tram rail_urban rail rail_electric ship" speed="12.54" length="0.30" shape="5267.48,1294.32 5267.46,1294.62"/>
    </edge>
    <edge id=":3740802527_0" function="internal">
        <lane id=":3740802527_0_0" index="0" disallow="tram rail_urban rail rail_electric ship" speed="12.54" length="0.29" shape="5203.75,1237.36 5204.03,1237.30"/>
    </edge>
    <edge id=":3740802528_0" function="internal">
        <lane id=":3740802528_0_0" index="0" disallow="tram rail_urban rail rail_electric ship" speed="13.89" length="5.19" shape="5218.09,1234.70 5223.17,1233.68"/>
    </edge>
    <edge id=":3740802534_0" function="internal">
        <lane id=":3740802534_0_0" index="0" disallow="tram rail_urban rail rail_electric ship" speed="11.18" length="6.91" shape="5241.14,1215.57 5241.72,1213.62 5241.92,1212.23 5241.95,1210.81 5241.98,1208.76"/>
    </edge>
    <edge id=":3740802534_1" function="internal">
        <lane id=":3740802534_1_0" index="0" disallow="tram rail_urban rail rail_electric ship" speed="11.18" length="6.87" shape="5241.14,1215.57 5241.94,1213.76 5242.83,1212.70 5244.01,1211.85 5245.69,1210.67"/>
    </edge>
    <edge id=":3740802542_0" function="internal">
        <lane id=":3740802542_0_0" index="0" disallow="tram rail_urban rail rail_electric ship" speed="12.54" length="0.29" shape="5257.46,1294.35 5257.49,1294.05"/>
    </edge>
    <edge id=":3740802543_0" function="internal">
        <lane id=":3740802543_0_0" index="0" disallow="tram rail_urban rail rail_electric ship" speed="13.89" length="5.12" shape="5258.93,1280.18 5259.27,1275.07"/>
    </edge>
    <edge id=":3740802547_0" function="internal">
        <lane id=":3740802547_0_0" index="0" disallow="tram rail_urban rail rail_electric ship" speed="12.54" length="7.28" shape="5256.85,1262.51 5255.84,1260.61 5255.04,1259.35 5254.02,1258.27 5252.36,1256.89"/>
    </edge>
    <edge id=":3740802547_1" function="internal">
        <lane id=":3740802547_1_0" index="0" disallow="tram rail_urban rail rail_electric ship" speed="11.18" length="7.23" shape="5259.12,1259.06 5256.98,1258.75 5255.48,1258.56 5254.10,1258.07 5252.36,1256.89"/>
    </edge>
    <edge id=":3740802553_0" function="internal">
        <lane id=":3740802553_0_0" index="0" disallow="tram rail_urban rail rail_electric ship" speed="13.89" length="5.07" shape="5224.76,1244.25 5219.77,1245.15"/>
    </edge>
    <edge id=":3740802554_0" function="internal">
        <lane id=":3740802554_0_0" index="0" disallow="tram rail_urban rail rail_electric ship" speed="12.54" length="7.11" shape="5243.64,1247.90 5242.25,1246.40 5241.02,1245.68 5239.57,1245.25 5237.53,1244.66"/>
    </edge>
    <edge id=":3740802554_1" function="internal">
        <lane id=":3740802554_1_0" index="0" disallow="tram rail_urban rail rail_electric ship" speed="11.18" length="7.15" shape="5243.64,1247.90 5242.41,1246.19 5241.70,1244.92 5241.14,1243.57 5240.32,1241.61"/>
    </edge>
    <edge id=":3740802558_0" function="internal">
        <lane id=":3740802558_0_0" index="0" disallow="tram rail_urban rail rail_electric ship" speed="12.54" length="7.22" shape="5234.24,1227.51 5235.92,1226.17 5237.13,1225.23 5238.04,1224.10 5238.87,1222.18"/>
    </edge>
    <edge id=":3740802558_1" function="internal">
        <lane id=":3740802558_1_0" index="0" disallow="tram rail_urban rail rail_electric ship" speed="11.18" length="7.25" shape="5237.92,1229.32 5238.00,1227.17 5238.04,1225.68 5238.27,1224.23 5238.87,1222.18"/>
    </edge>
    <edge id=":3740802597_0" function="internal">
        <lane id=":3740802597_0_0" index="0" disallow="tram rail_urban rail rail_electric ship" speed="11.18" length="5.53" shape="4601.93,2060.58 4600.45,2059.87 4599.37,2059.45 4598.26,2059.32 4596.65,2059.47"/>
    </edge>
    <edge id=":3740802597_1" function="internal">
        <lane id=":3740802597_1_0" index="0" disallow="tram rail_urban rail rail_electric ship" speed="12.54" length="5.31" shape="4600.79,2056.35 4599.79,2057.59 4598.77,2058.53 4597.72,2059.15 4596.65,2059.47"/>
    </edge>
    <edge id=":3740802603_0" function="internal">
        <lane id=":3740802603_0_0" index="0" disallow="tram rail_urban rail rail_electric ship" speed="12.54" length="5.57" shape="4585.83,2039.50 4587.23,2040.39 4588.26,2040.95 4589.36,2041.19 4590.97,2041.09"/>
    </edge>
    <edge id=":3740802603_1" function="internal">
        <lane id=":3740802603_1_0" index="0" disallow="tram rail_urban rail rail_electric ship" speed="13.89" length="5.59" shape="4586.29,2043.84 4587.48,2042.68 4588.36,2041.91 4589.38,2041.41 4590.97,2041.09"/>
    </edge>
    <edge id=":3740802606_0" function="internal">
        <lane id=":3740802606_0_0" index="0" disallow="tram rail_urban rail rail_electric ship" speed="9.73" length="5.68" shape="4597.52,2038.33 4597.95,2039.96 4598.29,2041.08 4598.82,2042.11 4599.82,2043.44"/>
    </edge>
    <edge id=":3740802606_1" function="internal">
        <lane id=":3740802606_1_0" index="0" disallow="tram rail_urban rail rail_electric ship" speed="13.89" length="6.21" shape="4594.39,2040.84 4596.20,2041.23 4597.48,2041.54 4598.58,2042.15 4599.82,2043.44"/>
    </edge>
    <edge id=":3740802610_0" function="internal">
        <lane id=":3740802610_0_0" index="0" disallow="tram rail_urban rail rail_electric ship" speed="12.54" length="5.55" shape="4602.67,2047.93 4603.24,2049.42 4603.92,2050.31 4604.89,2050.98 4606.31,2051.82"/>
    </edge>
    <edge id=":3740802610_1" function="internal">
        <lane id=":3740802610_1_0" index="0" disallow="tram rail_urban rail rail_electric ship" speed="13.89" length="5.60" shape="4602.67,2047.93 4603.04,2049.52 4603.04,2050.65 4602.74,2051.79 4602.23,2053.37"/>
    </edge>
    <edge id=":3740802616_0" function="internal">
        <lane id=":3740802616_0_0" index="0" disallow="tram rail_urban rail rail_electric ship" speed="11.18" length="0.10" shape="4732.95,2073.11 4732.95,2073.11"/>
    </edge>
    <edge id=":3740802628_0" function="internal">
        <lane id=":3740802628_0_0" index="0" disallow="tram rail_urban rail rail_electric ship" speed="11.18" length="0.27" shape="5006.70,1952.32 5006.92,1952.15"/>
    </edge>
    <edge id=":3740802652_0" function="internal">
        <lane id=":3740802652_0_0" index="0" disallow="tram rail_urban rail rail_electric ship" speed="11.18" length="5.39" shape="4583.69,2051.36 4583.28,2049.87 4582.70,2048.94 4581.81,2048.22 4580.47,2047.33"/>
    </edge>
    <edge id=":3740802652_1" function="internal">
        <lane id=":3740802652_1_0" index="0" disallow="tram rail_urban rail rail_electric ship" speed="12.54" length="5.46" shape="4583.69,2051.36 4583.48,2049.79 4583.59,2048.68 4584.00,2047.62 4584.69,2046.15"/>
    </edge>
    <edge id=":3740802656_0" function="internal">
        <lane id=":3740802656_0_0" index="0" disallow="tram rail_urban rail rail_electric ship" speed="12.54" length="5.20" shape="4523.41,1996.47 4522.59,1995.17 4521.90,1994.32 4521.03,1993.73 4519.61,1993.22"/>
    </edge>
    <edge id=":3740802656_1" function="internal">
        <lane id=":3740802656_1_0" index="0" disallow="tram rail_urban rail rail_electric ship" speed="13.89" length="5.03" shape="4524.39,1992.20 4523.09,1992.88 4521.86,1993.27 4520.70,1993.39 4519.61,1993.22"/>
    </edge>
    <edge id=":3740802661_0" function="internal">
        <lane id=":3740802661_0_0" index="0" disallow="tram rail_urban rail rail_electric ship" speed="12.54" length="5.34" shape="4510.53,1980.79 4510.66,1979.26 4510.47,1978.19 4509.95,1977.19 4509.11,1975.84"/>
    </edge>
    <edge id=":3740802661_1" function="internal">
        <lane id=":3740802661_1_0" index="0" disallow="tram rail_urban rail rail_electric ship" speed="13.89" length="5.33" shape="4510.53,1980.79 4510.87,1979.30 4511.39,1978.35 4512.20,1977.57 4513.43,1976.57"/>
    </edge>
    <edge id=":3740802664_0" function="internal">
        <lane id=":3740802664_0_0" index="0" allow="delivery bicycle pedestrian" speed="9.73" length="5.31" shape="4526.35,1976.84 4527.61,1977.75 4528.59,1978.18 4529.68,1978.38 4531.24,1978.60"/>
    </edge>
    <edge id=":3740802664_1" function="internal">
        <lane id=":3740802664_1_0" index="0" disallow="tram rail_urban rail rail_electric ship" speed="13.89" length="6.09" shape="4526.35,1976.84 4527.65,1978.05 4528.31,1979.08 4528.73,1980.29 4529.28,1982.02"/>
    </edge>
    <edge id=":3740802666_0" function="internal">
        <lane id=":3740802666_0_0" index="0" disallow="tram rail_urban rail rail_electric ship" speed="12.54" length="5.59" shape="4529.29,1985.18 4529.30,1986.79 4529.60,1987.88 4530.22,1988.88 4531.18,1990.24"/>
    </edge>
    <edge id=":3740802666_1" function="internal">
        <lane id=":3740802666_1_0" index="0" disallow="tram rail_urban rail rail_electric ship" speed="13.89" length="5.60" shape="4529.29,1985.18 4529.07,1986.78 4528.64,1987.83 4527.92,1988.77 4526.83,1990.03"/>
    </edge>
    <edge id=":3740802678_0" function="internal">
        <lane id=":3740802678_0_0" index="0" allow="delivery bicycle pedestrian" speed="8.37" length="4.99" shape="4482.14,1914.49 4481.59,1913.24 4480.78,1912.45 4479.69,1912.15 4478.33,1912.31"/>
    </edge>
    <edge id=":3740802678_1" function="internal">
        <lane id=":3740802678_1_0" index="0" disallow="tram rail_urban rail rail_electric ship" speed="11.18" length="9.46" shape="4482.14,1914.49 4479.73,1905.34"/>
    </edge>
    <edge id=":3740802678_2" function="internal">
        <lane id=":3740802678_2_0" index="0" disallow="tram rail_urban rail rail_electric ship" speed="8.37" length="5.00" shape="4477.48,1909.12 4478.75,1908.58 4479.54,1907.77 4479.87,1906.69 4479.73,1905.34"/>
    </edge>
    <edge id=":3740802678_3" function="internal">
        <lane id=":3740802678_3_0" index="0" allow="delivery bicycle pedestrian" speed="5.56" length="4.82" shape="4477.48,1909.12 4478.89,1909.60 4479.50,1910.29 4479.32,1911.19 4478.33,1912.31"/>
    </edge>
    <edge id=":3740802687_0" function="internal">
        <lane id=":3740802687_0_0" index="0" disallow="tram rail_urban rail rail_electric ship" speed="8.37" length="5.25" shape="4494.35,1709.92 4495.98,1710.05 4497.27,1709.81 4498.22,1709.19 4498.84,1708.20"/>
    </edge>
    <edge id=":3740802687_1" function="internal">
        <lane id=":3740802687_1_0" index="0" allow="delivery bicycle pedestrian" speed="5.56" length="5.45" shape="4494.35,1709.92 4494.88,1711.51 4494.67,1712.54 4493.73,1712.99 4492.06,1712.86"/>
    </edge>
    <edge id=":3740802687_2" function="internal">
        <lane id=":3740802687_2_0" index="0" allow="delivery bicycle pedestrian" speed="8.37" length="6.78" shape="4495.56,1717.45 4495.79,1715.76 4495.28,1714.43 4494.04,1713.46 4492.06,1712.86"/>
    </edge>
    <edge id=":3740802687_3" function="internal">
        <lane id=":3740802687_3_0" index="0" disallow="tram rail_urban rail rail_electric ship" speed="11.18" length="9.82" shape="4495.56,1717.45 4498.84,1708.20"/>
    </edge>
    <edge id=":3740802702_0" function="internal">
        <lane id=":3740802702_0_0" index="0" disallow="tram rail_urban rail rail_electric ship" speed="12.54" length="5.27" shape="4516.49,1971.14 4517.43,1972.39 4518.43,1973.29 4519.50,1973.84 4520.64,1974.05"/>
    </edge>
    <edge id=":3740802702_1" function="internal">
        <lane id=":3740802702_1_0" index="0" disallow="tram rail_urban rail rail_electric ship" speed="13.89" length="5.66" shape="4515.21,1975.33 4516.74,1974.64 4517.84,1974.24 4518.97,1974.06 4520.64,1974.05"/>
    </edge>
    <edge id=":3761995413_0" function="internal">
        <lane id=":3761995413_0_0" index="0" speed="5.56" length="0.79" shape="4708.89,2039.89 4708.73,2040.05 4708.63,2040.18 4708.56,2040.33 4708.49,2040.55"/>
    </edge>
    <edge id=":3761995413_1" function="internal">
        <lane id=":3761995413_1_0" index="0" speed="5.56" length="2.06" shape="4708.89,2039.89 4707.43,2040.18 4706.88,2039.99"/>
    </edge>
    <edge id=":3761995413_4" function="internal">
        <lane id=":3761995413_4_0" index="0" speed="5.56" length="2.75" shape="4706.88,2039.99 4706.56,2039.88 4706.27,2039.01 4706.56,2037.55"/>
    </edge>
    <edge id=":3761995413_2" function="internal">
        <lane id=":3761995413_2_0" index="0" speed="5.56" length="2.42" shape="4705.33,2039.58 4705.55,2038.90 4705.76,2038.45 4706.06,2038.06 4706.56,2037.55"/>
    </edge>
    <edge id=":3761995413_3" function="internal">
        <lane id=":3761995413_3_0" index="0" speed="5.56" length="2.85" shape="4705.33,2039.58 4706.49,2038.64 4707.40,2038.49 4707.72,2038.80"/>
    </edge>
    <edge id=":3761995413_5" function="internal">
        <lane id=":3761995413_5_0" index="0" speed="5.56" length="1.96" shape="4707.72,2038.80 4708.06,2039.13 4708.49,2040.55"/>
    </edge>
    <edge id=":3761995419_0" function="internal">
        <lane id=":3761995419_0_0" index="0" speed="5.56" length="5.45" shape="4750.05,2054.05 4749.53,2052.83 4748.64,2052.02 4747.40,2051.62 4745.78,2051.65"/>
    </edge>
    <edge id=":3761995419_1" function="internal">
        <lane id=":3761995419_1_0" index="0" speed="5.56" length="9.54" shape="4750.05,2054.05 4747.86,2044.77"/>
    </edge>
    <edge id=":3761995419_2" function="internal">
        <lane id=":3761995419_2_0" index="0" speed="5.56" length="4.82" shape="4750.05,2054.05 4750.57,2052.66 4751.28,2052.07 4752.17,2052.28 4753.26,2053.29"/>
    </edge>
    <edge id=":3761995419_3" function="internal">
        <lane id=":3761995419_3_0" index="0" speed="5.56" length="9.54" shape="4751.07,2044.01 4753.26,2053.29"/>
    </edge>
    <edge id=":3761995419_4" function="internal">
        <lane id=":3761995419_4_0" index="0" speed="5.56" length="10.86" shape="4751.07,2044.01 4751.34,2047.02 4750.55,2049.30 4748.70,2050.84 4745.78,2051.65"/>
    </edge>
    <edge id=":3761995419_5" function="internal">
        <lane id=":3761995419_5_0" index="0" speed="5.56" length="4.82" shape="4751.07,2044.01 4750.56,2045.40 4749.85,2045.99 4748.95,2045.78 4747.86,2044.77"/>
    </edge>
    <edge id=":3761995419_6" function="internal">
        <lane id=":3761995419_6_0" index="0" speed="5.56" length="5.13" shape="4745.36,2048.37 4746.74,2047.99 4747.61,2047.26 4747.99,2046.19 4747.86,2044.77"/>
    </edge>
    <edge id=":3761995419_7" function="internal">
        <lane id=":3761995419_7_0" index="0" speed="5.56" length="10.38" shape="4745.36,2048.37 4748.31,2048.37 4750.61,2049.18 4752.26,2050.83 4753.26,2053.29"/>
    </edge>
    <edge id=":3761995419_8" function="internal">
        <lane id=":3761995419_8_0" index="0" speed="5.56" length="4.82" shape="4745.36,2048.37 4746.70,2049.03 4747.21,2049.80 4746.91,2050.67 4745.78,2051.65"/>
    </edge>
    <edge id=":3761995420_0" function="internal">
        <lane id=":3761995420_0_0" index="0" speed="6.71" length="9.92" shape="4860.25,2003.52 4858.53,2001.45 4857.82,1999.30 4858.12,1997.05 4859.44,1994.71"/>
    </edge>
    <edge id=":3761995420_1" function="internal">
        <lane id=":3761995420_1_0" index="0" speed="6.71" length="2.69" shape="4860.25,2003.52 4859.89,2002.07 4860.13,2001.19 4860.39,2001.08"/>
    </edge>
    <edge id=":3761995420_4" function="internal">
        <lane id=":3761995420_4_0" index="0" speed="6.71" length="2.13" shape="4860.39,2001.08 4860.99,2000.85 4862.46,2001.06"/>
    </edge>
    <edge id=":3761995420_2" function="internal">
        <lane id=":3761995420_2_0" index="0" speed="6.71" length="4.90" shape="4862.06,1996.71 4861.41,1997.87 4861.26,1998.98 4861.61,2000.05 4862.46,2001.06"/>
    </edge>
    <edge id=":3761995420_3" function="internal">
        <lane id=":3761995420_3_0" index="0" speed="6.71" length="2.20" shape="4862.06,1996.71 4860.65,1997.19 4859.95,1997.06"/>
    </edge>
    <edge id=":3761995420_5" function="internal">
        <lane id=":3761995420_5_0" index="0" speed="6.71" length="2.62" shape="4859.95,1997.06 4859.75,1997.02 4859.34,1996.19 4859.44,1994.71"/>
    </edge>
    <edge id=":3761995421_0" function="internal">
        <lane id=":3761995421_0_0" index="0" speed="6.71" length="5.76" shape="4867.97,1991.32 4866.45,1992.09 4865.44,1992.70 4864.58,1993.49 4863.51,1994.81"/>
    </edge>
    <edge id=":3761995421_1" function="internal">
        <lane id=":3761995421_1_0" index="0" speed="6.71" length="2.41" shape="4867.97,1991.32 4866.50,1991.14 4865.76,1990.59"/>
    </edge>
    <edge id=":3761995421_4" function="internal">
        <lane id=":3761995421_4_0" index="0" speed="6.71" length="2.41" shape="4865.76,1990.59 4865.75,1989.67 4866.49,1988.37"/>
    </edge>
    <edge id=":3761995421_2" function="internal">
        <lane id=":3761995421_2_0" index="0" speed="6.71" length="7.25" shape="4860.88,1992.81 4862.23,1991.14 4863.30,1990.13 4864.57,1989.35 4866.49,1988.37"/>
    </edge>
    <edge id=":3761995421_3" function="internal">
        <lane id=":3761995421_3_0" index="0" speed="6.71" length="2.52" shape="4860.88,1992.81 4862.29,1992.33 4863.20,1992.50 4863.25,1992.60"/>
    </edge>
    <edge id=":3761995421_5" function="internal">
        <lane id=":3761995421_5_0" index="0" speed="6.71" length="2.30" shape="4863.25,1992.60 4863.60,1993.33 4863.51,1994.81"/>
    </edge>
    <edge id=":3761995422_0" function="internal">
        <lane id=":3761995422_0_0" index="0" speed="6.71" length="5.32" shape="4913.80,1966.33 4909.23,1969.05"/>
    </edge>
    <edge id=":3761995422_1" function="internal">
        <lane id=":3761995422_1_0" index="0" speed="6.71" length="2.52" shape="4913.80,1966.33 4912.31,1966.30 4911.52,1965.83 4911.51,1965.72"/>
    </edge>
    <edge id=":3761995422_4" function="internal">
        <lane id=":3761995422_4_0" index="0" speed="6.71" length="2.30" shape="4911.51,1965.72 4911.42,1964.91 4912.02,1963.55"/>
    </edge>
    <edge id=":3761995422_2" function="internal">
        <lane id=":3761995422_2_0" index="0" speed="6.71" length="5.10" shape="4907.64,1966.16 4912.02,1963.55"/>
    </edge>
    <edge id=":3761995422_3" function="internal">
        <lane id=":3761995422_3_0" index="0" speed="6.71" length="2.41" shape="4907.64,1966.16 4909.12,1966.29 4909.88,1966.81"/>
    </edge>
    <edge id=":3761995422_5" function="internal">
        <lane id=":3761995422_5_0" index="0" speed="6.71" length="2.41" shape="4909.88,1966.81 4909.92,1967.73 4909.23,1969.05"/>
    </edge>
    <edge id=":3761995423_0" function="internal">
        <lane id=":3761995423_0_0" index="0" speed="6.71" length="5.43" shape="4961.47,1935.54 4960.19,1936.52 4959.30,1937.18 4958.39,1937.79 4957.03,1938.67"/>
    </edge>
    <edge id=":3761995423_1" function="internal">
        <lane id=":3761995423_1_0" index="0" speed="6.71" length="2.41" shape="4961.47,1935.54 4959.98,1935.64 4959.15,1935.24"/>
    </edge>
    <edge id=":3761995423_4" function="internal">
        <lane id=":3761995423_4_0" index="0" speed="6.71" length="2.41" shape="4959.15,1935.24 4958.98,1934.33 4959.45,1932.93"/>
    </edge>
    <edge id=":3761995423_2" function="internal">
        <lane id=":3761995423_2_0" index="0" speed="6.71" length="5.14" shape="4955.25,1935.89 4956.54,1935.06 4957.40,1934.48 4958.24,1933.86 4959.45,1932.93"/>
    </edge>
    <edge id=":3761995423_3" function="internal">
        <lane id=":3761995423_3_0" index="0" speed="6.71" length="2.41" shape="4955.25,1935.89 4956.74,1935.91 4957.53,1936.39"/>
    </edge>
    <edge id=":3761995423_5" function="internal">
        <lane id=":3761995423_5_0" index="0" speed="6.71" length="2.41" shape="4957.53,1936.39 4957.63,1937.30 4957.03,1938.67"/>
    </edge>
    <edge id=":3761995424_0" function="internal">
        <lane id=":3761995424_0_0" index="0" speed="6.71" length="5.38" shape="5006.11,1900.83 5001.99,1904.28"/>
    </edge>
    <edge id=":3761995424_1" function="internal">
        <lane id=":3761995424_1_0" index="0" speed="6.71" length="2.53" shape="5006.11,1900.83 5004.64,1901.05 5003.78,1900.71 5003.75,1900.59"/>
    </edge>
    <edge id=":3761995424_4" function="internal">
        <lane id=":3761995424_4_0" index="0" speed="6.71" length="2.29" shape="5003.75,1900.59 5003.53,1899.82 5003.90,1898.38"/>
    </edge>
    <edge id=":3761995424_2" function="internal">
        <lane id=":3761995424_2_0" index="0" speed="6.71" length="5.12" shape="4999.97,1901.67 5003.90,1898.38"/>
    </edge>
    <edge id=":3761995424_3" function="internal">
        <lane id=":3761995424_3_0" index="0" speed="6.71" length="2.41" shape="4999.97,1901.67 5001.45,1901.57 5002.28,1901.97"/>
    </edge>
    <edge id=":3761995424_5" function="internal">
        <lane id=":3761995424_5_0" index="0" speed="6.71" length="2.41" shape="5002.28,1901.97 5002.46,1902.87 5001.99,1904.28"/>
    </edge>
    <edge id=":3761995425_0" function="internal">
        <lane id=":3761995425_0_0" index="0" allow="emergency authority delivery bicycle pedestrian" speed="6.71" length="4.82" shape="5091.91,1800.67 5093.33,1800.22 5094.23,1800.41 5094.62,1801.25 5094.49,1802.73"/>
    </edge>
    <edge id=":3761995426_0" function="internal">
        <lane id=":3761995426_0_0" index="0" speed="6.71" length="4.96" shape="5053.62,1859.61 5052.51,1858.83 5051.41,1858.59 5050.32,1858.87 5049.24,1859.69"/>
    </edge>
    <edge id=":3761995426_1" function="internal">
        <lane id=":3761995426_1_0" index="0" allow="emergency authority delivery bicycle pedestrian" speed="6.71" length="9.96" shape="5053.62,1859.61 5051.88,1857.49 5051.14,1855.30 5051.38,1853.04 5052.62,1850.72"/>
    </edge>