<routes>
	<vType id="chevy_s10" accel="0.6" decel="1.3" sigma="0.4" length="5" minGap="2.5" maxSpeed="3" guiShape="passenger"/>
	<vType id="bob" accel="1.5" decel="2" signma="0.4" length="0.215" minGap="0.25" maxSpeed="5.4" guiShape="pedestrian" vClass="pedestrian" />
</routes>
