<?xml version="1.0" encoding="UTF-8"?>

<!-- generated on Wed 18 Jul 2018 11:20:54 PM UTC by Netedit Version 0.30.0
<?xml version="1.0" encoding="UTF-8"?>

<configuration xmlns:xsi="http://www.w3.org/2001/XMLSchema-instance" xsi:noNamespaceSchemaLocation="http://sumo.dlr.de/xsd/netconvertConfiguration.xsd">

    <input>
        <sumo-net-file value="../data/grid2.net.xml"/>
    </input>

    <output>
        <output-file value="../data/grid2.net.xml"/>
    </output>

    <processing>
        <no-turnarounds value="true"/>
        <offset.disable-normalization value="true"/>
        <lefthand value="false"/>
        <junctions.corner-detail value="0"/>
        <rectangular-lane-cut value="false"/>
    </processing>

</configuration>
-->

<net version="0.27" xmlns:xsi="http://www.w3.org/2001/XMLSchema-instance" xsi:noNamespaceSchemaLocation="http://sumo.dlr.de/xsd/net_file.xsd">

    <location netOffset="0.00,0.00" convBoundary="-30.00,-40.00,210.00,40.00" origBoundary="-10000000000.00,-10000000000.00,10000000000.00,10000000000.00" projParameter="!"/>

    <edge id=":gneJ0_0" function="internal">
        <lane id=":gneJ0_0_0" index="0" speed="13.89" length="7.85" shape="-1.65,11.35 -1.84,8.55 -2.42,6.55 -3.39,5.35 -4.75,4.95"/>
    </edge>
    <edge id=":gneJ0_1" function="internal">
        <lane id=":gneJ0_1_0" index="0" speed="13.89" length="22.70" shape="-1.65,11.35 -1.65,-11.35"/>
    </edge>
    <edge id=":gneJ0_2" function="internal">
        <lane id=":gneJ0_2_0" index="0" speed="13.89" length="10.10" shape="-1.65,11.35 -1.25,5.66 -0.05,1.60 0.05,1.48"/>
    </edge>
    <edge id=":gneJ0_15" function="internal">
        <lane id=":gneJ0_15_0" index="0" speed="13.89" length="5.91" shape="0.05,1.48 1.95,-0.84 4.75,-1.65"/>
    </edge>
    <edge id=":gneJ0_3" function="internal">
        <lane id=":gneJ0_3_0" index="0" speed="13.89" length="5.00" shape="4.75,8.25 3.39,8.44 2.43,9.02 1.84,9.99 1.65,11.35"/>
    </edge>
    <edge id=":gneJ0_4" function="internal">
        <lane id=":gneJ0_4_0" index="0" speed="13.89" length="10.23" shape="4.75,8.25 1.85,7.73 -0.00,6.60 -1.85,5.47 -4.75,4.95"/>
        <lane id=":gneJ0_4_1" index="1" speed="13.89" length="10.23" shape="4.75,4.95 1.85,4.43 -0.00,3.30 -1.85,2.17 -4.75,1.65"/>
    </edge>
    <edge id=":gneJ0_6" function="internal">
        <lane id=":gneJ0_6_0" index="0" speed="13.89" length="5.69" shape="4.75,1.65 1.95,0.84 0.19,-1.31"/>
    </edge>
    <edge id=":gneJ0_7" function="internal">
        <lane id=":gneJ0_7_0" index="0" speed="13.89" length="2.74" shape="4.75,1.65 3.51,0.83 3.10,0.00 3.25,-0.29"/>
    </edge>
    <edge id=":gneJ0_16" function="internal">
        <lane id=":gneJ0_16_0" index="0" speed="13.89" length="10.32" shape="0.19,-1.31 -0.05,-1.60 -1.25,-5.66 -1.65,-11.35"/>
    </edge>
    <edge id=":gneJ0_17" function="internal">
        <lane id=":gneJ0_17_0" index="0" speed="13.89" length="2.08" shape="3.25,-0.29 3.51,-0.83 4.75,-1.65"/>
    </edge>
    <edge id=":gneJ0_8" function="internal">
        <lane id=":gneJ0_8_0" index="0" speed="13.89" length="7.85" shape="1.65,-11.35 1.84,-8.55 2.42,-6.55 3.39,-5.35 4.75,-4.95"/>
    </edge>
    <edge id=":gneJ0_9" function="internal">
        <lane id=":gneJ0_9_0" index="0" speed="13.89" length="22.70" shape="1.65,-11.35 1.65,11.35"/>
    </edge>
    <edge id=":gneJ0_10" function="internal">
        <lane id=":gneJ0_10_0" index="0" speed="13.89" length="10.10" shape="1.65,-11.35 1.25,-5.66 0.05,-1.60 -0.05,-1.48"/>
    </edge>
    <edge id=":gneJ0_18" function="internal">
        <lane id=":gneJ0_18_0" index="0" speed="13.89" length="5.91" shape="-0.05,-1.48 -1.95,0.84 -4.75,1.65"/>
    </edge>
    <edge id=":gneJ0_11" function="internal">
        <lane id=":gneJ0_11_0" index="0" speed="13.89" length="5.00" shape="-4.75,-8.25 -3.39,-8.44 -2.43,-9.02 -1.84,-9.99 -1.65,-11.35"/>
    </edge>
    <edge id=":gneJ0_12" function="internal">
        <lane id=":gneJ0_12_0" index="0" speed="13.89" length="10.23" shape="-4.75,-8.25 -1.85,-7.73 0.00,-6.60 1.85,-5.47 4.75,-4.95"/>
        <lane id=":gneJ0_12_1" index="1" speed="13.89" length="10.23" shape="-4.75,-4.95 -1.85,-4.43 0.00,-3.30 1.85,-2.17 4.75,-1.65"/>
    </edge>
    <edge id=":gneJ0_14" function="internal">
        <lane id=":gneJ0_14_0" index="0" speed="13.89" length="5.69" shape="-4.75,-1.65 -1.95,-0.84 -0.19,1.31"/>
    </edge>
    <edge id=":gneJ0_19" function="internal">
        <lane id=":gneJ0_19_0" index="0" speed="13.89" length="10.32" shape="-0.19,1.31 0.05,1.60 1.25,5.66 1.65,11.35"/>
    </edge>
    <edge id=":gneJ1_0" function="internal">
        <lane id=":gneJ1_0_0" index="0" speed="13.89" length="3.97" shape="16.50,4.95 13.50,8.25"/>
        <lane id=":gneJ1_0_1" index="1" speed="13.89" length="3.97" shape="16.50,1.65 13.50,4.95"/>
        <lane id=":gneJ1_0_2" index="2" speed="13.89" length="3.97" shape="16.50,1.65 13.50,1.65"/>
    </edge>
    <edge id=":gneJ1_3" function="internal">
        <lane id=":gneJ1_3_0" index="0" speed="13.89" length="3.00" shape="13.50,-4.95 16.50,-4.95"/>
        <lane id=":gneJ1_3_1" index="1" speed="13.89" length="3.00" shape="13.50,-1.65 16.50,-1.65"/>
    </edge>
    <edge id=":gneJ10_0" function="internal">
        <lane id=":gneJ10_0_0" index="0" speed="13.89" length="9.50" shape="-1.65,-15.25 -1.65,-24.75"/>
    </edge>
    <edge id=":gneJ10_1" function="internal">
        <lane id=":gneJ10_1_0" index="0" speed="13.89" length="10.32" shape="-1.65,-15.25 -1.25,-18.05 -0.05,-20.05 1.95,-21.25 4.75,-21.65"/>
    </edge>
    <edge id=":gneJ10_2" function="internal">
        <lane id=":gneJ10_2_0" index="0" speed="13.89" length="5.00" shape="4.75,-18.35 3.39,-18.16 2.42,-17.58 1.84,-16.61 1.65,-15.25"/>
    </edge>
    <edge id=":gneJ10_3" function="internal">
        <lane id=":gneJ10_3_0" index="0" speed="13.89" length="10.32" shape="4.75,-18.35 1.95,-18.75 -0.05,-19.95 -1.25,-21.95 -1.65,-24.75"/>
    </edge>
    <edge id=":gneJ10_4" function="internal">
        <lane id=":gneJ10_4_0" index="0" speed="13.89" length="5.00" shape="1.65,-24.75 1.84,-23.39 2.42,-22.43 3.39,-21.84 4.75,-21.65"/>
    </edge>
    <edge id=":gneJ10_5" function="internal">
        <lane id=":gneJ10_5_0" index="0" speed="13.89" length="9.50" shape="1.65,-24.75 1.65,-15.25"/>
    </edge>
    <edge id=":gneJ11_0" function="internal">
        <lane id=":gneJ11_0_0" index="0" speed="13.89" length="7.90" shape="-1.65,-36.75 -1.34,-38.89 -0.42,-40.43 1.11,-41.34 3.25,-41.65"/>
    </edge>
    <edge id=":gneJ11_1" function="internal">
        <lane id=":gneJ11_1_0" index="0" speed="13.89" length="2.58" shape="3.25,-38.35 2.55,-38.25 2.05,-37.95 1.75,-37.45 1.65,-36.75"/>
    </edge>
    <edge id=":gneJ12_0" function="internal">
        <lane id=":gneJ12_0_0" index="0" speed="13.89" length="5.00" shape="43.35,-15.25 43.16,-16.61 42.58,-17.57 41.61,-18.16 40.25,-18.35"/>
    </edge>
    <edge id=":gneJ12_1" function="internal">
        <lane id=":gneJ12_1_0" index="0" speed="13.89" length="9.50" shape="43.35,-15.25 43.35,-24.75"/>
    </edge>
    <edge id=":gneJ12_2" function="internal">
        <lane id=":gneJ12_2_0" index="0" speed="13.89" length="5.28" shape="43.35,-15.25 43.75,-18.05 44.95,-20.05 45.05,-20.11"/>
    </edge>
    <edge id=":gneJ12_12" function="internal">
        <lane id=":gneJ12_12_0" index="0" speed="13.89" length="5.04" shape="45.05,-20.11 46.95,-21.25 49.75,-21.65"/>
    </edge>
    <edge id=":gneJ12_3" function="internal">
        <lane id=":gneJ12_3_0" index="0" speed="13.89" length="5.00" shape="49.75,-18.35 48.39,-18.16 47.42,-17.58 46.84,-16.61 46.65,-15.25"/>
    </edge>
    <edge id=":gneJ12_4" function="internal">
        <lane id=":gneJ12_4_0" index="0" speed="13.89" length="9.50" shape="49.75,-18.35 40.25,-18.35"/>
    </edge>
    <edge id=":gneJ12_5" function="internal">
        <lane id=":gneJ12_5_0" index="0" speed="13.89" length="10.32" shape="49.75,-18.35 46.95,-18.75 44.95,-19.95 43.75,-21.95 43.35,-24.75"/>
    </edge>
    <edge id=":gneJ12_6" function="internal">
        <lane id=":gneJ12_6_0" index="0" speed="13.89" length="5.00" shape="46.65,-24.75 46.84,-23.39 47.42,-22.43 48.39,-21.84 49.75,-21.65"/>
    </edge>
    <edge id=":gneJ12_7" function="internal">
        <lane id=":gneJ12_7_0" index="0" speed="13.89" length="9.50" shape="46.65,-24.75 46.65,-15.25"/>
    </edge>
    <edge id=":gneJ12_8" function="internal">
        <lane id=":gneJ12_8_0" index="0" speed="13.89" length="5.28" shape="46.65,-24.75 46.25,-21.95 45.05,-19.95 44.95,-19.89"/>
    </edge>
    <edge id=":gneJ12_13" function="internal">
        <lane id=":gneJ12_13_0" index="0" speed="13.89" length="5.04" shape="44.95,-19.89 43.05,-18.75 40.25,-18.35"/>
    </edge>
    <edge id=":gneJ12_9" function="internal">
        <lane id=":gneJ12_9_0" index="0" speed="13.89" length="5.00" shape="40.25,-21.65 41.61,-21.84 42.58,-22.42 43.16,-23.39 43.35,-24.75"/>
    </edge>
    <edge id=":gneJ12_10" function="internal">
        <lane id=":gneJ12_10_0" index="0" speed="13.89" length="9.50" shape="40.25,-21.65 49.75,-21.65"/>
    </edge>
    <edge id=":gneJ12_11" function="internal">
        <lane id=":gneJ12_11_0" index="0" speed="13.89" length="10.32" shape="40.25,-21.65 43.05,-21.25 45.05,-20.05 46.25,-18.05 46.65,-15.25"/>
    </edge>
    <edge id=":gneJ13_0" function="internal">
        <lane id=":gneJ13_0_0" index="0" speed="13.89" length="5.00" shape="43.35,-35.25 43.16,-36.61 42.58,-37.57 41.61,-38.16 40.25,-38.35"/>
    </edge>
    <edge id=":gneJ13_1" function="internal">
        <lane id=":gneJ13_1_0" index="0" speed="13.89" length="10.32" shape="43.35,-35.25 43.75,-38.05 44.95,-40.05 46.95,-41.25 49.75,-41.65"/>
    </edge>
    <edge id=":gneJ13_2" function="internal">
        <lane id=":gneJ13_2_0" index="0" speed="13.89" length="5.00" shape="49.75,-38.35 48.39,-38.16 47.42,-37.58 46.84,-36.61 46.65,-35.25"/>
    </edge>
    <edge id=":gneJ13_3" function="internal">
        <lane id=":gneJ13_3_0" index="0" speed="13.89" length="9.50" shape="49.75,-38.35 40.25,-38.35"/>
    </edge>
    <edge id=":gneJ13_4" function="internal">
        <lane id=":gneJ13_4_0" index="0" speed="13.89" length="9.50" shape="40.25,-41.65 49.75,-41.65"/>
    </edge>
    <edge id=":gneJ13_5" function="internal">
        <lane id=":gneJ13_5_0" index="0" speed="13.89" length="10.32" shape="40.25,-41.65 43.05,-41.25 45.05,-40.05 46.25,-38.05 46.65,-35.25"/>
    </edge>
    <edge id=":gneJ14_0" function="internal">
        <lane id=":gneJ14_0_0" index="0" speed="13.89" length="3.97" shape="61.50,4.95 58.50,8.25"/>
        <lane id=":gneJ14_0_1" index="1" speed="13.89" length="3.97" shape="61.50,1.65 58.50,4.95"/>
        <lane id=":gneJ14_0_2" index="2" speed="13.89" length="3.97" shape="61.50,1.65 58.50,1.65"/>
    </edge>
    <edge id=":gneJ14_3" function="internal">
        <lane id=":gneJ14_3_0" index="0" speed="13.89" length="3.00" shape="58.50,-4.95 61.50,-4.95"/>
        <lane id=":gneJ14_3_1" index="1" speed="13.89" length="3.00" shape="58.50,-1.65 61.50,-1.65"/>
    </edge>
    <edge id=":gneJ15_0" function="internal">
        <lane id=":gneJ15_0_0" index="0" speed="13.89" length="3.00" shape="76.50,4.95 73.50,4.95"/>
        <lane id=":gneJ15_0_1" index="1" speed="13.89" length="3.00" shape="76.50,1.65 73.50,1.65"/>
    </edge>
    <edge id=":gneJ15_2" function="internal">
        <lane id=":gneJ15_2_0" index="0" speed="13.89" length="3.97" shape="73.50,-4.95 76.50,-8.25"/>
        <lane id=":gneJ15_2_1" index="1" speed="13.89" length="3.97" shape="73.50,-1.65 76.50,-4.95"/>
        <lane id=":gneJ15_2_2" index="2" speed="13.89" length="3.97" shape="73.50,-1.65 76.50,-1.65"/>
    </edge>
    <edge id=":gneJ16_0" function="internal">
        <lane id=":gneJ16_0_0" index="0" speed="13.89" length="7.85" shape="88.35,11.35 88.16,8.55 87.57,6.55 86.61,5.35 85.25,4.95"/>
    </edge>
    <edge id=":gneJ16_1" function="internal">
        <lane id=":gneJ16_1_0" index="0" speed="13.89" length="22.70" shape="88.35,11.35 88.35,-11.35"/>
    </edge>
    <edge id=":gneJ16_2" function="internal">
        <lane id=":gneJ16_2_0" index="0" speed="13.89" length="10.10" shape="88.35,11.35 88.75,5.66 89.95,1.60 90.05,1.48"/>
    </edge>
    <edge id=":gneJ16_14" function="internal">
        <lane id=":gneJ16_14_0" index="0" speed="13.89" length="5.91" shape="90.05,1.48 91.95,-0.84 94.75,-1.65"/>
    </edge>
    <edge id=":gneJ16_3" function="internal">
        <lane id=":gneJ16_3_0" index="0" speed="13.89" length="5.00" shape="94.75,8.25 93.39,8.44 92.43,9.02 91.84,9.99 91.65,11.35"/>
    </edge>
    <edge id=":gneJ16_4" function="internal">
        <lane id=":gneJ16_4_0" index="0" speed="13.89" length="10.23" shape="94.75,8.25 91.85,7.73 90.00,6.60 88.15,5.47 85.25,4.95"/>
        <lane id=":gneJ16_4_1" index="1" speed="13.89" length="10.23" shape="94.75,4.95 91.85,4.43 90.00,3.30 88.15,2.17 85.25,1.65"/>
    </edge>
    <edge id=":gneJ16_6" function="internal">
        <lane id=":gneJ16_6_0" index="0" speed="13.89" length="5.69" shape="94.75,1.65 91.95,0.84 90.19,-1.31"/>
    </edge>
    <edge id=":gneJ16_15" function="internal">
        <lane id=":gneJ16_15_0" index="0" speed="13.89" length="10.32" shape="90.19,-1.31 89.95,-1.60 88.75,-5.66 88.35,-11.35"/>
    </edge>
    <edge id=":gneJ16_7" function="internal">
        <lane id=":gneJ16_7_0" index="0" speed="13.89" length="7.85" shape="91.65,-11.35 91.84,-8.55 92.43,-6.55 93.39,-5.35 94.75,-4.95"/>
    </edge>
    <edge id=":gneJ16_8" function="internal">
        <lane id=":gneJ16_8_0" index="0" speed="13.89" length="22.70" shape="91.65,-11.35 91.65,11.35"/>
    </edge>
    <edge id=":gneJ16_9" function="internal">
        <lane id=":gneJ16_9_0" index="0" speed="13.89" length="10.10" shape="91.65,-11.35 91.25,-5.66 90.05,-1.60 89.95,-1.48"/>
    </edge>
    <edge id=":gneJ16_16" function="internal">
        <lane id=":gneJ16_16_0" index="0" speed="13.89" length="5.91" shape="89.95,-1.48 88.05,0.84 85.25,1.65"/>
    </edge>
    <edge id=":gneJ16_10" function="internal">
        <lane id=":gneJ16_10_0" index="0" speed="13.89" length="5.00" shape="85.25,-8.25 86.61,-8.44 87.57,-9.02 88.16,-9.99 88.35,-11.35"/>
    </edge>
    <edge id=":gneJ16_11" function="internal">
        <lane id=":gneJ16_11_0" index="0" speed="13.89" length="10.23" shape="85.25,-8.25 88.15,-7.73 90.00,-6.60 91.85,-5.47 94.75,-4.95"/>
        <lane id=":gneJ16_11_1" index="1" speed="13.89" length="10.23" shape="85.25,-4.95 88.15,-4.43 90.00,-3.30 91.85,-2.17 94.75,-1.65"/>
    </edge>
    <edge id=":gneJ16_13" function="internal">
        <lane id=":gneJ16_13_0" index="0" speed="13.89" length="5.69" shape="85.25,-1.65 88.05,-0.84 89.81,1.31"/>
    </edge>
    <edge id=":gneJ16_17" function="internal">
        <lane id=":gneJ16_17_0" index="0" speed="13.89" length="10.32" shape="89.81,1.31 90.05,1.60 91.25,5.66 91.65,11.35"/>
    </edge>
    <edge id=":gneJ17_0" function="internal">
        <lane id=":gneJ17_0_0" index="0" speed="13.89" length="5.00" shape="88.35,24.75 88.16,23.39 87.57,22.43 86.61,21.84 85.25,21.65"/>
    </edge>
    <edge id=":gneJ17_1" function="internal">
        <lane id=":gneJ17_1_0" index="0" speed="13.89" length="9.50" shape="88.35,24.75 88.35,15.25"/>
    </edge>
    <edge id=":gneJ17_2" function="internal">
        <lane id=":gneJ17_2_0" index="0" speed="13.89" length="5.28" shape="88.35,24.75 88.75,21.95 89.95,19.95 90.05,19.89"/>
    </edge>
    <edge id=":gneJ17_12" function="internal">
        <lane id=":gneJ17_12_0" index="0" speed="13.89" length="5.04" shape="90.05,19.89 91.95,18.75 94.75,18.35"/>
    </edge>
    <edge id=":gneJ17_3" function="internal">
        <lane id=":gneJ17_3_0" index="0" speed="13.89" length="5.00" shape="94.75,21.65 93.39,21.84 92.43,22.42 91.84,23.39 91.65,24.75"/>
    </edge>
    <edge id=":gneJ17_4" function="internal">
        <lane id=":gneJ17_4_0" index="0" speed="13.89" length="9.50" shape="94.75,21.65 85.25,21.65"/>
    </edge>
    <edge id=":gneJ17_5" function="internal">
        <lane id=":gneJ17_5_0" index="0" speed="13.89" length="10.32" shape="94.75,21.65 91.95,21.25 89.95,20.05 88.75,18.05 88.35,15.25"/>
    </edge>
    <edge id=":gneJ17_6" function="internal">
        <lane id=":gneJ17_6_0" index="0" speed="13.89" length="5.00" shape="91.65,15.25 91.84,16.61 92.43,17.57 93.39,18.16 94.75,18.35"/>
    </edge>
    <edge id=":gneJ17_7" function="internal">
        <lane id=":gneJ17_7_0" index="0" speed="13.89" length="9.50" shape="91.65,15.25 91.65,24.75"/>
    </edge>
    <edge id=":gneJ17_8" function="internal">
        <lane id=":gneJ17_8_0" index="0" speed="13.89" length="5.28" shape="91.65,15.25 91.25,18.05 90.05,20.05 89.95,20.11"/>
    </edge>
    <edge id=":gneJ17_13" function="internal">
        <lane id=":gneJ17_13_0" index="0" speed="13.89" length="5.04" shape="89.95,20.11 88.05,21.25 85.25,21.65"/>
    </edge>
    <edge id=":gneJ17_9" function="internal">
        <lane id=":gneJ17_9_0" index="0" speed="13.89" length="5.00" shape="85.25,18.35 86.61,18.16 87.57,17.58 88.16,16.61 88.35,15.25"/>
    </edge>
    <edge id=":gneJ17_10" function="internal">
        <lane id=":gneJ17_10_0" index="0" speed="13.89" length="9.50" shape="85.25,18.35 94.75,18.35"/>
    </edge>
    <edge id=":gneJ17_11" function="internal">
        <lane id=":gneJ17_11_0" index="0" speed="13.89" length="10.32" shape="85.25,18.35 88.05,18.75 90.05,19.95 91.25,21.95 91.65,24.75"/>
    </edge>
    <edge id=":gneJ18_0" function="internal">
        <lane id=":gneJ18_0_0" index="0" speed="13.89" length="9.50" shape="94.75,41.65 85.25,41.65"/>
    </edge>
    <edge id=":gneJ18_1" function="internal">
        <lane id=":gneJ18_1_0" index="0" speed="13.89" length="10.32" shape="94.75,41.65 91.95,41.25 89.95,40.05 88.75,38.05 88.35,35.25"/>
    </edge>
    <edge id=":gneJ18_2" function="internal">
        <lane id=":gneJ18_2_0" index="0" speed="13.89" length="5.00" shape="91.65,35.25 91.84,36.61 92.43,37.57 93.39,38.16 94.75,38.35"/>
    </edge>
    <edge id=":gneJ18_3" function="internal">
        <lane id=":gneJ18_3_0" index="0" speed="13.89" length="10.32" shape="91.65,35.25 91.25,38.05 90.05,40.05 88.05,41.25 85.25,41.65"/>
    </edge>
    <edge id=":gneJ18_4" function="internal">
        <lane id=":gneJ18_4_0" index="0" speed="13.89" length="5.00" shape="85.25,38.35 86.61,38.16 87.57,37.58 88.16,36.61 88.35,35.25"/>
    </edge>
    <edge id=":gneJ18_5" function="internal">
        <lane id=":gneJ18_5_0" index="0" speed="13.89" length="9.50" shape="85.25,38.35 94.75,38.35"/>
    </edge>
    <edge id=":gneJ19_0" function="internal">
        <lane id=":gneJ19_0_0" index="0" speed="13.89" length="5.00" shape="88.35,-15.25 88.16,-16.61 87.57,-17.57 86.61,-18.16 85.25,-18.35"/>
    </edge>
    <edge id=":gneJ19_1" function="internal">
        <lane id=":gneJ19_1_0" index="0" speed="13.89" length="9.50" shape="88.35,-15.25 88.35,-24.75"/>
    </edge>
    <edge id=":gneJ19_2" function="internal">
        <lane id=":gneJ19_2_0" index="0" speed="13.89" length="5.28" shape="88.35,-15.25 88.75,-18.05 89.95,-20.05 90.05,-20.11"/>
    </edge>
    <edge id=":gneJ19_12" function="internal">
        <lane id=":gneJ19_12_0" index="0" speed="13.89" length="5.04" shape="90.05,-20.11 91.95,-21.25 94.75,-21.65"/>
    </edge>
    <edge id=":gneJ19_3" function="internal">
        <lane id=":gneJ19_3_0" index="0" speed="13.89" length="5.00" shape="94.75,-18.35 93.39,-18.16 92.43,-17.58 91.84,-16.61 91.65,-15.25"/>
    </edge>
    <edge id=":gneJ19_4" function="internal">
        <lane id=":gneJ19_4_0" index="0" speed="13.89" length="9.50" shape="94.75,-18.35 85.25,-18.35"/>
    </edge>
    <edge id=":gneJ19_5" function="internal">
        <lane id=":gneJ19_5_0" index="0" speed="13.89" length="10.32" shape="94.75,-18.35 91.95,-18.75 89.95,-19.95 88.75,-21.95 88.35,-24.75"/>
    </edge>
    <edge id=":gneJ19_6" function="internal">
        <lane id=":gneJ19_6_0" index="0" speed="13.89" length="5.00" shape="91.65,-24.75 91.84,-23.39 92.43,-22.43 93.39,-21.84 94.75,-21.65"/>
    </edge>
    <edge id=":gneJ19_7" function="internal">
        <lane id=":gneJ19_7_0" index="0" speed="13.89" length="9.50" shape="91.65,-24.75 91.65,-15.25"/>
    </edge>
    <edge id=":gneJ19_8" function="internal">
        <lane id=":gneJ19_8_0" index="0" speed="13.89" length="5.28" shape="91.65,-24.75 91.25,-21.95 90.05,-19.95 89.95,-19.89"/>
    </edge>
    <edge id=":gneJ19_13" function="internal">
        <lane id=":gneJ19_13_0" index="0" speed="13.89" length="5.04" shape="89.95,-19.89 88.05,-18.75 85.25,-18.35"/>
    </edge>
    <edge id=":gneJ19_9" function="internal">
        <lane id=":gneJ19_9_0" index="0" speed="13.89" length="5.00" shape="85.25,-21.65 86.61,-21.84 87.57,-22.42 88.16,-23.39 88.35,-24.75"/>
    </edge>
    <edge id=":gneJ19_10" function="internal">
        <lane id=":gneJ19_10_0" index="0" speed="13.89" length="9.50" shape="85.25,-21.65 94.75,-21.65"/>
    </edge>
    <edge id=":gneJ19_11" function="internal">
        <lane id=":gneJ19_11_0" index="0" speed="13.89" length="10.32" shape="85.25,-21.65 88.05,-21.25 90.05,-20.05 91.25,-18.05 91.65,-15.25"/>
    </edge>
    <edge id=":gneJ2_0" function="internal">
        <lane id=":gneJ2_0_0" index="0" speed="13.89" length="3.00" shape="31.50,4.95 28.50,4.95"/>
        <lane id=":gneJ2_0_1" index="1" speed="13.89" length="3.00" shape="31.50,1.65 28.50,1.65"/>
    </edge>
    <edge id=":gneJ2_2" function="internal">
        <lane id=":gneJ2_2_0" index="0" speed="13.89" length="3.97" shape="28.50,-4.95 31.50,-8.25"/>
        <lane id=":gneJ2_2_1" index="1" speed="13.89" length="3.97" shape="28.50,-1.65 31.50,-4.95"/>
        <lane id=":gneJ2_2_2" index="2" speed="13.89" length="3.97" shape="28.50,-1.65 31.50,-1.65"/>
    </edge>
    <edge id=":gneJ20_0" function="internal">
        <lane id=":gneJ20_0_0" index="0" speed="13.89" length="5.00" shape="88.35,-35.25 88.16,-36.61 87.57,-37.57 86.61,-38.16 85.25,-38.35"/>
    </edge>
    <edge id=":gneJ20_1" function="internal">
        <lane id=":gneJ20_1_0" index="0" speed="13.89" length="10.32" shape="88.35,-35.25 88.75,-38.05 89.95,-40.05 91.95,-41.25 94.75,-41.65"/>
    </edge>
    <edge id=":gneJ20_2" function="internal">
        <lane id=":gneJ20_2_0" index="0" speed="13.89" length="5.00" shape="94.75,-38.35 93.39,-38.16 92.43,-37.58 91.84,-36.61 91.65,-35.25"/>
    </edge>
    <edge id=":gneJ20_3" function="internal">
        <lane id=":gneJ20_3_0" index="0" speed="13.89" length="9.50" shape="94.75,-38.35 85.25,-38.35"/>
    </edge>
    <edge id=":gneJ20_4" function="internal">
        <lane id=":gneJ20_4_0" index="0" speed="13.89" length="9.50" shape="85.25,-41.65 94.75,-41.65"/>
    </edge>
    <edge id=":gneJ20_5" function="internal">
        <lane id=":gneJ20_5_0" index="0" speed="13.89" length="10.32" shape="85.25,-41.65 88.05,-41.25 90.05,-40.05 91.25,-38.05 91.65,-35.25"/>
    </edge>
    <edge id=":gneJ21_0" function="internal">
        <lane id=":gneJ21_0_0" index="0" speed="13.89" length="3.97" shape="106.50,4.95 103.50,8.25"/>
        <lane id=":gneJ21_0_1" index="1" speed="13.89" length="3.97" shape="106.50,1.65 103.50,4.95"/>
        <lane id=":gneJ21_0_2" index="2" speed="13.89" length="3.97" shape="106.50,1.65 103.50,1.65"/>
    </edge>
    <edge id=":gneJ21_3" function="internal">
        <lane id=":gneJ21_3_0" index="0" speed="13.89" length="3.00" shape="103.50,-4.95 106.50,-4.95"/>
        <lane id=":gneJ21_3_1" index="1" speed="13.89" length="3.00" shape="103.50,-1.65 106.50,-1.65"/>
    </edge>
    <edge id=":gneJ22_0" function="internal">
        <lane id=":gneJ22_0_0" index="0" speed="13.89" length="3.00" shape="121.50,4.95 118.50,4.95"/>
        <lane id=":gneJ22_0_1" index="1" speed="13.89" length="3.00" shape="121.50,1.65 118.50,1.65"/>
    </edge>
    <edge id=":gneJ22_2" function="internal">
        <lane id=":gneJ22_2_0" index="0" speed="13.89" length="3.97" shape="118.50,-4.95 121.50,-8.25"/>
        <lane id=":gneJ22_2_1" index="1" speed="13.89" length="3.97" shape="118.50,-1.65 121.50,-4.95"/>
        <lane id=":gneJ22_2_2" index="2" speed="13.89" length="3.97" shape="118.50,-1.65 121.50,-1.65"/>
    </edge>
    <edge id=":gneJ23_0" function="internal">
        <lane id=":gneJ23_0_0" index="0" speed="13.89" length="7.85" shape="133.35,11.35 133.16,8.55 132.57,6.55 131.61,5.35 130.25,4.95"/>
    </edge>
    <edge id=":gneJ23_1" function="internal">
        <lane id=":gneJ23_1_0" index="0" speed="13.89" length="22.70" shape="133.35,11.35 133.35,-11.35"/>
    </edge>
    <edge id=":gneJ23_2" function="internal">
        <lane id=":gneJ23_2_0" index="0" speed="13.89" length="10.10" shape="133.35,11.35 133.75,5.66 134.95,1.60 135.05,1.48"/>
    </edge>
    <edge id=":gneJ23_14" function="internal">
        <lane id=":gneJ23_14_0" index="0" speed="13.89" length="5.91" shape="135.05,1.48 136.95,-0.84 139.75,-1.65"/>
    </edge>
    <edge id=":gneJ23_3" function="internal">
        <lane id=":gneJ23_3_0" index="0" speed="13.89" length="5.00" shape="139.75,8.25 138.39,8.44 137.43,9.02 136.84,9.99 136.65,11.35"/>
    </edge>
    <edge id=":gneJ23_4" function="internal">
        <lane id=":gneJ23_4_0" index="0" speed="13.89" length="10.23" shape="139.75,8.25 136.85,7.73 135.00,6.60 133.15,5.47 130.25,4.95"/>
        <lane id=":gneJ23_4_1" index="1" speed="13.89" length="10.23" shape="139.75,4.95 136.85,4.43 135.00,3.30 133.15,2.17 130.25,1.65"/>
    </edge>
    <edge id=":gneJ23_6" function="internal">
        <lane id=":gneJ23_6_0" index="0" speed="13.89" length="5.69" shape="139.75,1.65 136.95,0.84 135.19,-1.31"/>
    </edge>
    <edge id=":gneJ23_15" function="internal">
        <lane id=":gneJ23_15_0" index="0" speed="13.89" length="10.32" shape="135.19,-1.31 134.95,-1.60 133.75,-5.66 133.35,-11.35"/>
    </edge>
    <edge id=":gneJ23_7" function="internal">
        <lane id=":gneJ23_7_0" index="0" speed="13.89" length="7.85" shape="136.65,-11.35 136.84,-8.55 137.43,-6.55 138.39,-5.35 139.75,-4.95"/>
    </edge>
    <edge id=":gneJ23_8" function="internal">
        <lane id=":gneJ23_8_0" index="0" speed="13.89" length="22.70" shape="136.65,-11.35 136.65,11.35"/>
    </edge>
    <edge id=":gneJ23_9" function="internal">
        <lane id=":gneJ23_9_0" index="0" speed="13.89" length="10.10" shape="136.65,-11.35 136.25,-5.66 135.05,-1.60 134.95,-1.48"/>
    </edge>
    <edge id=":gneJ23_16" function="internal">
        <lane id=":gneJ23_16_0" index="0" speed="13.89" length="5.91" shape="134.95,-1.48 133.05,0.84 130.25,1.65"/>
    </edge>
    <edge id=":gneJ23_10" function="internal">
        <lane id=":gneJ23_10_0" index="0" speed="13.89" length="5.00" shape="130.25,-8.25 131.61,-8.44 132.57,-9.02 133.16,-9.99 133.35,-11.35"/>
    </edge>
    <edge id=":gneJ23_11" function="internal">
        <lane id=":gneJ23_11_0" index="0" speed="13.89" length="10.23" shape="130.25,-8.25 133.15,-7.73 135.00,-6.60 136.85,-5.47 139.75,-4.95"/>
        <lane id=":gneJ23_11_1" index="1" speed="13.89" length="10.23" shape="130.25,-4.95 133.15,-4.43 135.00,-3.30 136.85,-2.17 139.75,-1.65"/>
    </edge>
    <edge id=":gneJ23_13" function="internal">
        <lane id=":gneJ23_13_0" index="0" speed="13.89" length="5.69" shape="130.25,-1.65 133.05,-0.84 134.81,1.31"/>
    </edge>
    <edge id=":gneJ23_17" function="internal">
        <lane id=":gneJ23_17_0" index="0" speed="13.89" length="10.32" shape="134.81,1.31 135.05,1.60 136.25,5.66 136.65,11.35"/>
    </edge>
    <edge id=":gneJ24_0" function="internal">
        <lane id=":gneJ24_0_0" index="0" speed="13.89" length="5.00" shape="133.35,24.75 133.16,23.39 132.57,22.43 131.61,21.84 130.25,21.65"/>
    </edge>
    <edge id=":gneJ24_1" function="internal">
        <lane id=":gneJ24_1_0" index="0" speed="13.89" length="9.50" shape="133.35,24.75 133.35,15.25"/>
    </edge>
    <edge id=":gneJ24_2" function="internal">
        <lane id=":gneJ24_2_0" index="0" speed="13.89" length="5.28" shape="133.35,24.75 133.75,21.95 134.95,19.95 135.05,19.89"/>
    </edge>
    <edge id=":gneJ24_12" function="internal">
        <lane id=":gneJ24_12_0" index="0" speed="13.89" length="5.04" shape="135.05,19.89 136.95,18.75 139.75,18.35"/>
    </edge>
    <edge id=":gneJ24_3" function="internal">
        <lane id=":gneJ24_3_0" index="0" speed="13.89" length="5.00" shape="139.75,21.65 138.39,21.84 137.43,22.42 136.84,23.39 136.65,24.75"/>
    </edge>
    <edge id=":gneJ24_4" function="internal">
        <lane id=":gneJ24_4_0" index="0" speed="13.89" length="9.50" shape="139.75,21.65 130.25,21.65"/>
    </edge>
    <edge id=":gneJ24_5" function="internal">
        <lane id=":gneJ24_5_0" index="0" speed="13.89" length="10.32" shape="139.75,21.65 136.95,21.25 134.95,20.05 133.75,18.05 133.35,15.25"/>
    </edge>
    <edge id=":gneJ24_6" function="internal">
        <lane id=":gneJ24_6_0" index="0" speed="13.89" length="5.00" shape="136.65,15.25 136.84,16.61 137.43,17.57 138.39,18.16 139.75,18.35"/>
    </edge>
    <edge id=":gneJ24_7" function="internal">
        <lane id=":gneJ24_7_0" index="0" speed="13.89" length="9.50" shape="136.65,15.25 136.65,24.75"/>
    </edge>
    <edge id=":gneJ24_8" function="internal">
        <lane id=":gneJ24_8_0" index="0" speed="13.89" length="5.28" shape="136.65,15.25 136.25,18.05 135.05,20.05 134.95,20.11"/>
    </edge>
    <edge id=":gneJ24_13" function="internal">
        <lane id=":gneJ24_13_0" index="0" speed="13.89" length="5.04" shape="134.95,20.11 133.05,21.25 130.25,21.65"/>
    </edge>
    <edge id=":gneJ24_9" function="internal">
        <lane id=":gneJ24_9_0" index="0" speed="13.89" length="5.00" shape="130.25,18.35 131.61,18.16 132.57,17.58 133.16,16.61 133.35,15.25"/>
    </edge>
    <edge id=":gneJ24_10" function="internal">
        <lane id=":gneJ24_10_0" index="0" speed="13.89" length="9.50" shape="130.25,18.35 139.75,18.35"/>
    </edge>
    <edge id=":gneJ24_11" function="internal">