<?xml version="1.0" encoding="UTF-8"?>

<!-- generated on Fri Aug 10 03:11:51 2018 by SUMO polyconvert Version 0.30.0
<?xml version="1.0" encoding="UTF-8"?>

<configuration xmlns:xsi="http://www.w3.org/2001/XMLSchema-instance" xsi:noNamespaceSchemaLocation="http://sumo.dlr.de/xsd/polyconvertConfiguration.xsd">

    <input>
        <net-file value="university.net.xml"/>
        <osm-files value="university.osm"/>
        <type-file value="osm.typ.xml"/>
    </input>

    <output>
        <output-file value="university.poly.xml"/>
    </output>

    <processing>
        <poi-layer-offset value="5"/>
    </processing>

</configuration>
-->

<additional xmlns:xsi="http://www.w3.org/2001/XMLSchema-instance" xsi:noNamespaceSchemaLocation="http://sumo.dlr.de/xsd/additional_file.xsd">
    <location netOffset="-406541.40,-3106826.91" convBoundary="-10353.60,-14442.68,37266.39,24161.58" origBoundary="-82.055863,27.952582,-81.573110,28.303783" projParameter="+proj=utm +zone=17 +ellps=WGS84 +datum=WGS84 +units=m +no_defs"/>

    <poly id="221424337" type="residential" color="235,235,227" fill="1" layer="-3.00" shape="13527.53,7287.87 13523.25,7282.99 13521.22,7125.64 13530.19,7116.74 13551.19,7100.89 13561.34,7090.02 13590.24,7066.74 13622.56,7052.54 13673.61,7023.47 13813.23,6955.02 13890.67,6898.12 13946.16,6843.42 13995.91,6806.28 14029.71,6751.55 14052.60,6675.37 14065.25,6588.47 14062.39,6519.01 14043.80,6406.95 14040.49,6366.70 14052.04,6338.15 14089.21,6298.62 14145.72,6288.91 14207.60,6300.29 14240.70,6302.03 14281.92,6283.60 14353.77,6290.98 14419.99,6300.35 14493.11,6300.86 14588.38,6294.33 14633.50,6288.84 14632.47,6479.37 14718.68,6479.20 14723.73,6863.91 14400.95,6870.21 14375.45,6876.63 14366.25,6881.55 14330.48,6915.11 14314.04,6943.00 14318.14,7050.26 14316.48,7218.65 14293.34,7255.26 14256.56,7276.69 14244.14,7282.84 14219.22,7285.43 13527.53,7287.87"/>
    <poly id="224604082" type="building" color="255,230,230" fill="1" layer="-1.00" shape="14852.19,7825.04 14852.67,7843.39 14848.36,7843.93 14848.31,7860.97 14828.73,7860.83 14828.75,7825.46 14852.19,7825.04"/>
    <poly id="224604083" type="tourism" color="207,245,201" fill="1" layer="-2.00" shape="14787.95,7750.88 14960.45,7748.35 14988.17,7757.86 14994.06,7771.18 14994.61,7801.07 15015.58,7801.44 15015.91,7891.30 15001.21,7897.42 15001.16,7969.99 14953.64,7992.57 14870.28,7972.94 14854.86,7951.04 14854.52,7898.64 14773.92,7897.61 14773.86,7809.84 14788.07,7793.77 14787.95,7750.88"/>
    <poly id="224604084" type="building" color="255,230,230" fill="1" layer="-1.00" shape="14792.36,7818.88 14805.27,7819.33 14805.22,7852.60 14792.75,7852.99 14792.36,7818.88"/>
    <poly id="224604085" type="building" color="255,230,230" fill="1" layer="-1.00" shape="14858.84,7834.69 14902.03,7834.40 14902.08,7842.53 14858.72,7842.83 14858.84,7834.69"/>
    <poly id="238001122" type="water" color="181,209,209" fill="1" layer="-4.00" shape="9878.69,8577.60 9878.29,8574.43 9875.13,8575.62 9871.98,8579.57 9869.20,8585.90 9863.67,8592.61 9846.29,8620.68 9842.73,8627.39 9841.14,8633.32 9847.07,8632.14 9848.66,8625.43 9851.81,8617.52 9856.16,8610.79 9875.92,8583.52 9878.69,8577.60"/>
    <poly id="238001536" type="water" color="181,209,209" fill="1" layer="-4.00" shape="10073.15,8385.51 10083.82,8381.56 10088.57,8378.00 10093.70,8370.49 10077.89,8374.44 10071.97,8376.41 10067.22,8378.79 10056.95,8382.74 10044.70,8383.14 10040.75,8385.50 10032.44,8400.92 10027.70,8408.43 10020.58,8422.26 10017.81,8430.96 10011.50,8440.05 10002.40,8456.26 9992.13,8470.09 9976.32,8483.93 9968.41,8489.06 9956.16,8498.15 9951.82,8504.47 9942.72,8510.01 9936.01,8516.73 9928.10,8519.89 9921.37,8523.44 9910.31,8535.31 9894.11,8544.80 9886.21,8553.09 9883.44,8559.82 9887.78,8562.18 9899.64,8554.27 9905.57,8547.56 9929.68,8530.17 9941.54,8520.29 9967.63,8503.29 9979.09,8494.99 9983.44,8493.80 10006.75,8473.64 10022.16,8453.09 10030.86,8428.19 10035.21,8420.69 10045.88,8405.67 10051.81,8393.41 10063.66,8388.28 10073.15,8385.51"/>
    <poly id="238012497" type="water" color="181,209,209" fill="1" layer="-4.00" shape="7394.77,6737.15 7392.71,6740.07 7389.96,6742.83 7385.01,6746.67 7383.18,6749.96 7382.27,6752.72 7382.26,6770.88 7383.37,6786.82 7385.57,6790.67 7396.57,6795.07 7402.07,6793.97 7416.37,6780.77 7425.72,6768.67 7430.12,6761.52 7432.86,6750.53 7431.77,6747.22 7427.91,6743.37 7429.57,6736.22 7425.99,6736.23 7421.87,6731.83 7415.82,6730.17 7412.52,6727.42 7405.37,6728.52 7401.79,6734.02 7394.77,6737.15"/>
    <poly id="238012657" type="water" color="181,209,209" fill="1" layer="-4.00" shape="5296.84,6460.11 5295.13,6456.09 5290.13,6453.59 5283.04,6452.34 5276.58,6453.67 5270.96,6455.68 5269.71,6459.84 5267.21,6464.85 5262.21,6466.51 5260.54,6472.34 5261.38,6479.43 5264.29,6482.76 5264.29,6486.51 5261.80,6487.76 5261.38,6492.35 5264.30,6496.92 5267.21,6498.59 5271.38,6497.76 5272.63,6499.84 5275.96,6500.26 5278.88,6499.01 5280.96,6500.68 5288.47,6500.68 5292.63,6501.51 5297.21,6497.76 5298.46,6491.51 5303.47,6491.92 5306.17,6470.89 5301.80,6468.18 5297.63,6464.84 5296.84,6460.11"/>
    <poly id="238012976" type="water" color="181,209,209" fill="1" layer="-4.00" shape="6229.55,6261.56 6216.60,6255.09 6193.93,6261.57 6193.93,6281.00 6206.88,6303.68 6219.84,6300.44 6229.55,6274.52 6229.55,6261.56"/>
    <poly id="238390667" type="building" color="255,230,230" fill="1" layer="-1.00" shape="4239.60,5609.84 4385.40,5343.09 4492.52,5401.02 4346.73,5667.77 4239.60,5609.84"/>
    <poly id="267489109" type="building" color="255,230,230" fill="1" layer="-1.00" shape="7245.26,7105.37 7237.01,7103.49 7229.83,7099.04 7224.49,7092.53 7221.55,7084.65 7221.35,7076.24 7223.90,7068.22 7228.93,7061.46 7235.88,7056.69 7244.03,7054.41 7252.47,7054.90 7260.31,7058.07 7266.68,7063.62 7270.91,7070.94 7272.50,7079.21 7271.31,7087.55 7267.46,7095.06 7261.36,7100.91 7253.69,7104.48 7245.26,7105.37"/>
    <poly id="267489111" type="building" color="255,230,230" fill="1" layer="-1.00" shape="7322.46,7111.62 7315.70,7110.68 7309.43,7107.98 7304.11,7103.75 7300.09,7098.25 7297.68,7091.89 7297.05,7085.14 7298.23,7078.45 7301.15,7072.31 7305.59,7067.15 7311.25,7063.36 7317.72,7061.18 7324.80,7060.80 7331.73,7062.38 7337.95,7065.78 7342.99,7070.76 7346.47,7076.92 7348.10,7083.80 7347.77,7090.85 7345.52,7097.54 7341.49,7103.37 7336.01,7107.86 7329.50,7110.69 7322.46,7111.62"/>
    <poly id="279425023" type="amenity" color="237,199,199" fill="1" layer="-1.00" shape="10669.39,6491.36 10663.20,6513.04 10646.11,6508.14 10579.85,6527.06 10546.36,6638.19 10618.81,6659.81 10599.95,6721.99 10597.08,6721.12 10509.43,7013.22 10494.95,7008.51 10378.36,7395.34 10336.88,7532.98 10322.14,7548.97 10304.86,7564.93 10285.22,7579.48 10262.18,7593.43 10244.15,7601.78 10223.67,7609.92 10204.48,7615.56 10201.19,7616.17 10185.35,7619.11 10156.77,7622.28 9617.20,7459.93 9713.09,7140.63 9740.89,7044.57 9750.78,6982.41 9759.09,6915.16 9757.86,6851.63 9746.35,6747.09 9787.81,6741.97 9892.67,6726.89 9965.83,6714.78 10039.32,6701.34 10158.74,6675.89 10260.78,6649.49 10218.70,6661.62 10279.76,6646.30 10327.74,6633.30 10346.46,6627.03 10364.77,6620.50 10383.11,6613.01 10402.14,6604.63 10425.77,6592.79 10439.80,6584.85 10454.89,6576.09 10474.38,6563.57 10491.20,6551.86 10507.66,6539.36 10526.05,6524.31 10546.41,6506.02 10565.36,6487.29 10584.01,6466.46 10593.45,6455.05 10604.61,6441.27 10665.87,6491.36 10669.39,6491.36"/>
    <poly id="312366192" type="building" color="255,230,230" fill="1" layer="-1.00" shape="4397.89,5697.21 4506.73,5756.50 4653.03,5490.75 4544.19,5431.46 4397.89,5697.21"/>
    <poly id="312366194" type="building" color="255,230,230" fill="1" layer="-1.00" shape="4678.94,5438.85 4795.61,5395.70 4699.42,5138.31 4582.76,5181.46 4678.94,5438.85"/>
    <poly id="329162410" type="commercial" color="209,209,204" fill="1" layer="-3.00" shape="7356.04,6922.07 7355.39,7124.09 7260.05,7125.30 7239.48,7122.05 7219.89,7108.83 7194.22,7090.67 7187.79,7075.53 7205.63,7066.23 7215.54,7053.05 7222.87,7046.19 7229.42,7041.16 7230.48,7006.04 7242.72,6988.14 7251.83,6971.56 7259.09,6956.58 7261.66,6947.91 7263.88,6926.67 7264.17,6894.18 7356.04,6922.07"/>
    
    <poly id="411217302" type="water" color="181,209,209" fill="1" layer="-4.00" shape="12741.08,6463.13 12818.78,6463.36 12823.14,6468.20 12823.17,6473.81 12807.62,6530.11 12763.68,6613.20 12752.09,6617.78 12742.12,6616.71 12736.78,6613.01 12736.40,6604.77 12736.78,6465.04 12741.08,6463.13"/>
    <poly id="411217310" type="amenity" color="237,199,199" fill="1" layer="-1.00" shape="12888.83,6446.80 12724.47,6448.00 12723.46,6326.14 12888.13,6325.03 12888.83,6446.80"/>
    <poly id="411217311" type="amenity" color="237,199,199" fill="1" layer="-1.00" shape="12723.46,6326.14 12721.88,6094.73 13107.00,6091.88 13107.10,6107.51 13108.61,6323.54 12888.13,6325.03 12723.46,6326.14"/>
    
    <poly id="442666513" type="landuse" color="194,194,130" fill="1" layer="-3.00" shape="12792.57,7337.18 12905.62,7402.85 12905.18,7338.73 12792.57,7337.18"/>
    <poly id="467810553" type="building" color="255,230,230" fill="1" layer="-1.00" shape="9930.22,7301.73 9937.20,7321.08 9929.49,7347.33 9920.14,7366.79 9903.46,7392.58 9874.12,7414.27 9856.53,7423.84 9839.19,7429.85 9831.55,7430.22 9818.48,7425.33 9810.63,7414.12 9808.08,7404.67 9814.40,7386.39 9822.14,7363.80 9841.98,7336.94 9874.95,7307.89 9894.39,7299.89 9914.38,7295.56 9930.22,7301.73"/>
    <poly id="467810554" type="building" color="255,230,230" fill="1" layer="-1.00" shape="10075.59,7359.97 10094.18,7375.25 10099.76,7378.20 10102.51,7383.34 10105.62,7381.93 10106.84,7381.27 10104.43,7375.66 10108.77,7372.81 10167.74,7341.93 10172.01,7350.10 10170.34,7351.05 10169.45,7351.76 10172.10,7356.27 10111.54,7387.96 10095.37,7397.20 10067.76,7372.25 10072.04,7368.36 10071.15,7367.53 10069.73,7366.21 10075.59,7359.97"/>
    <poly id="467810963" type="building" color="255,230,230" fill="1" layer="-1.00" shape="10252.09,7226.12 10269.49,7206.74 10272.69,7203.16 10290.90,7182.95 10302.70,7193.69 10304.30,7195.14 10316.40,7206.39 10303.62,7222.19 10277.97,7248.90 10265.73,7238.24 10252.09,7226.12"/>
    <poly id="467810964" type="building" color="255,230,230" fill="1" layer="-1.00" shape="10331.55,7364.69 10355.01,7354.95 10362.32,7372.39 10338.86,7382.13 10331.55,7364.69"/>
    <poly id="467810966" type="building" color="255,230,230" fill="1" layer="-1.00" shape="10378.24,7311.01 10395.72,7316.25 10403.23,7291.90 10385.29,7286.37 10381.12,7301.41 10378.24,7311.01"/>
    <poly id="467810971" type="water" color="181,209,209" fill="1" layer="-4.00" shape="10333.32,6786.74 10352.74,6800.57 10372.80,6816.55 10387.20,6831.91 10401.79,6847.94 9986.41,7308.71 9976.97,7358.36 9938.30,7429.47 9878.03,7467.09 9861.60,7470.05 9847.23,7464.27 9839.19,7429.85 9856.53,7423.84 9874.12,7414.27 9903.46,7392.58 9920.14,7366.79 9929.49,7347.33 9937.20,7321.08 9930.22,7301.73 9914.38,7295.56 9894.39,7299.89 9874.95,7307.89 9841.98,7336.94 9822.14,7363.80 9814.40,7386.39 9808.08,7404.67 9774.36,7398.97 9767.68,7383.81 9768.22,7373.62 9782.76,7335.82 9817.20,7298.38 9862.34,7260.87 9907.70,7254.35 10333.32,6786.74"/>
    <poly id="467811275" type="water" color="181,209,209" fill="0" layer="-4.00" shape="10054.18,7070.01 10079.11,7084.67 10105.08,7105.91 10126.83,7127.94 10147.34,7153.78"/>
    <poly id="467811276" type="water" color="181,209,209" fill="0" layer="-4.00" shape="10134.31,6977.82 10153.05,6988.59 10169.40,7000.82 10186.42,7015.08 10208.43,7035.89 10229.87,7063.77"/>
    <poly id="467811277" type="water" color="181,209,209" fill="0" layer="-4.00" shape="10216.60,6888.07 10243.99,6904.76 10269.83,6925.93 10292.11,6949.10 10311.69,6972.90"/>
    <poly id="467811279" type="water" color="181,209,209" fill="0" layer="-4.00" shape="9971.66,7158.92 9992.61,7172.27 10008.30,7183.62 10023.04,7195.91 10035.33,7207.37 10046.84,7220.37 10065.74,7243.99"/>
    <poly id="468650669" type="leisure" color="207,245,201" fill="1" layer="-2.00" shape="10321.84,6969.36 10269.18,7023.42 10319.78,7073.17 10452.16,7085.38 10467.00,7026.21 10479.17,6943.16 10403.19,6874.74 10321.84,6969.36"/>
    <poly id="481476644" type="building" color="255,230,230" fill="1" layer="-1.00" shape="10208.83,7253.52 10239.25,7280.14 10236.40,7283.83 10233.57,7281.86 10229.55,7286.66 10227.75,7288.73 10225.82,7287.04 10204.98,7310.96 10202.20,7308.88 10183.52,7328.22 10178.50,7334.00 10191.80,7346.29 10203.70,7335.66 10213.51,7325.58 10216.30,7328.11 10243.45,7301.89 10266.23,7279.53 10227.44,7245.31 10220.53,7239.94 10208.83,7253.52"/>
    <poly id="502499986" type="water" color="181,209,209" fill="1" layer="-4.00" shape="12587.73,5668.29 12572.72,5668.14 12547.30,5667.91 12536.88,5666.54 12530.26,5661.09 12528.89,5653.50 12533.22,5591.88 12535.79,5582.44 12539.16,5576.12 12543.22,5572.69 12547.42,5569.90 12559.52,5567.07 12590.31,5563.85 12597.04,5564.33 12604.04,5567.43 12606.70,5572.38 12610.37,5587.96 12610.66,5592.80 12608.60,5597.93 12605.86,5602.27 12600.64,5608.72 12600.39,5612.00 12602.68,5618.40 12606.99,5633.57 12609.30,5643.91 12609.37,5653.74 12607.69,5658.33 12604.81,5662.28 12599.04,5665.60 12587.73,5668.29"/>
    <poly id="502506643" type="residential" color="235,235,227" fill="1" layer="-3.00" shape="12683.55,6094.75 12686.74,6654.70 12685.91,6686.94 12681.38,6718.67 12668.01,6767.77 12647.01,6816.38 12620.97,6859.27 12587.24,6898.54 12573.66,6914.35 12511.29,6980.15 12466.83,7027.08 12448.54,7048.57 12431.86,7073.56 12419.11,7098.41 12412.51,7113.92 12402.46,7147.66 12414.41,6899.06 12383.53,6899.52 12312.07,6898.55 12316.97,6602.32 12318.02,6581.61 12313.96,6547.57 12309.37,6530.31 12307.11,6526.92 12307.27,6493.78 12434.37,6494.75 12453.51,6094.23 12683.55,6094.75"/>
    <poly id="502506644" type="water" color="181,209,209" fill="1" layer="-4.00" shape="12450.17,7229.73 12461.21,7168.74 12464.48,7165.31 12488.32,7165.54 12488.36,7230.52 12450.17,7229.73"/>
    <poly id="502506645" type="water" color="181,209,209" fill="1" layer="-4.00" shape="12508.94,7235.75 12504.70,7231.58 12504.74,7160.71 12498.10,7151.33 12484.25,7147.62 12467.26,7148.53 12495.01,7084.40 12501.16,7079.25 12545.14,7078.82 12546.21,7236.16 12508.94,7235.75"/>
    <poly id="502506646" type="water" color="181,209,209" fill="1" layer="-4.00" shape="12600.17,6822.86 12593.17,6819.49 12590.62,6812.18 12591.15,6793.57 12589.72,6776.81 12591.24,6768.54 12599.51,6763.78 12613.08,6764.73 12614.83,6771.79 12613.85,6782.02 12615.35,6788.30 12615.29,6799.95 12615.49,6809.78 12613.17,6817.00 12608.33,6821.88 12605.18,6824.00 12600.17,6822.86"/>
    <poly id="502506647" type="landuse" color="194,194,130" fill="1" layer="-3.00" shape="12465.78,5843.64 12681.25,5844.14 12684.15,5961.26 12684.92,6094.77 12683.55,6094.75 12453.51,6094.23 12465.78,5843.64"/>
    <poly id="502506648" type="landuse" color="194,194,130" fill="1" layer="-3.00" shape="12413.92,6285.27 12383.43,6285.61 12302.31,6286.68 12297.45,5707.65 12441.73,5707.28 12413.92,6285.27"/>
    <poly id="502506649" type="residential" color="235,235,227" fill="1" layer="-3.00" shape="12266.71,6493.13 11494.77,6485.45 11490.22,6091.59 11890.47,6092.83 11889.60,5715.30 11883.17,5709.31 12297.45,5707.65 12302.31,6286.68 12383.43,6285.61 12303.52,6329.11 12250.10,6375.60 12264.10,6439.04 12266.71,6493.13"/>
    <poly id="502506650" type="residential" color="235,235,227" fill="1" layer="-3.00" shape="11507.36,7714.54 11505.20,7436.07 11500.53,7436.14 11499.59,7292.59 11903.65,7295.55 11902.65,7094.28 11901.61,6892.98 11900.23,6690.71 11495.35,6686.67 11494.77,6485.45 11490.22,6091.59 11087.88,6090.35 11098.78,7691.76 11241.24,7689.05 11259.45,7694.04 11401.80,7694.76 11401.65,7690.70 11417.06,7692.56 11428.01,7694.97 11492.01,7694.99 11492.14,7713.46 11507.36,7714.54"/>
    <poly id="502506651" type="water" color="181,209,209" fill="1" layer="-4.00" shape="11882.76,8026.55 11766.86,8023.68 11661.20,8017.07 11545.25,8006.86 11524.42,8002.03 11523.27,7989.46 11532.49,7950.36 11544.59,7948.43 11834.82,7947.76 11882.74,7947.43 11885.95,7953.69 11888.53,8022.06 11882.76,8026.55"/>
    <poly id="502506652" type="water" color="181,209,209" fill="1" layer="-4.00" shape="11859.88,7492.22 11841.19,7494.19 11825.77,7492.72 11816.51,7486.37 11813.41,7476.05 11815.32,7466.59 11820.56,7462.89 11832.02,7463.08 11844.94,7464.43 11859.18,7467.48 11868.02,7470.55 11870.84,7478.27 11868.25,7484.05 11865.25,7489.05 11859.88,7492.22"/>
    <poly id="502506653" type="water" color="181,209,209" fill="1" layer="-4.00" shape="11543.97,7398.50 11539.38,7381.24 11534.20,7356.38 11529.03,7333.89 11529.50,7324.45 11537.64,7321.51 11549.51,7323.53 11556.14,7329.51 11559.95,7349.14 11564.56,7368.49 11566.26,7385.24 11563.70,7396.01 11560.06,7401.54 11551.36,7400.81 11543.97,7398.50"/>
    <poly id="502506654" type="landuse" color="194,194,130" fill="1" layer="-3.00" shape="11507.36,7714.54 11505.20,7436.07 11500.53,7436.14 11499.59,7292.59 11903.65,7295.55 11905.66,7698.51 11906.03,7712.52 11885.77,7716.26 11858.32,7717.89 11507.36,7714.54"/>
    <poly id="502506655" type="landuse" color="194,194,130" fill="1" layer="-3.00" shape="12329.00,8040.66 11907.07,8038.44 11906.59,7929.46 11604.52,7931.53 11603.11,7727.31 11836.34,7728.32 11860.17,7727.90 11886.24,7726.27 11916.88,7720.96 11946.06,7712.50 11975.42,7710.86 12145.30,7712.33 12175.59,7713.43 12195.61,7713.81 12196.19,7982.50 12331.89,7983.01 12329.00,8040.66"/>
    <poly id="502506656" type="landuse" color="194,194,130" fill="1" layer="-3.00" shape="11937.42,7296.11 11936.98,7232.02 12063.67,7233.18 12064.15,7296.91 11937.42,7296.11"/>
    <poly id="502506657" type="landuse" color="194,194,130" fill="1" layer="-3.00" shape="11902.65,7094.28 12305.41,7099.45 12305.37,7112.49 12304.42,7112.47 12306.27,7298.93 12233.48,7298.42 12233.31,7352.38 12307.79,7353.13 12306.57,7696.03 12304.09,7699.91 12218.69,7699.25 12201.32,7700.55 11905.66,7698.51 11903.65,7295.55 11902.65,7094.28"/>
    <poly id="502506658" type="landuse" color="194,194,130" fill="1" layer="-3.00" shape="12374.35,7099.25 12305.41,7099.45 11902.65,7094.28 11901.61,6892.98 12312.07,6898.55 12383.53,6899.52 12374.35,7099.25"/>
    <poly id="502506659" type="landuse" color="194,194,130" fill="1" layer="-3.00" shape="11098.78,7691.76 11083.43,7692.24 11067.64,7693.73 10671.51,7697.99 10670.93,7670.94 10546.33,7672.31 10546.20,7699.56 10516.45,7699.95 10506.00,7684.85 10495.34,7666.32 10489.73,7655.61 10482.65,7640.34 10474.43,7615.37 10468.03,7584.64 10465.50,7561.33 10465.29,7545.18 10473.28,7506.65 10488.40,7426.90 10569.04,7159.48 10574.72,7161.33 11004.20,5712.22 11085.87,5711.78 11087.88,6090.35 11098.78,7691.76"/>
    <poly id="502506660" type="water" color="181,209,209" fill="1" layer="-4.00" shape="10658.98,7774.56 10597.45,7749.58 10592.94,7744.37 10592.77,7720.27 10605.93,7719.13 10609.84,7713.59 10601.91,7709.98 10558.70,7708.46 10556.77,7694.32 10557.76,7685.41 10568.28,7683.23 10660.32,7682.33 10661.28,7688.74 10661.65,7702.75 10660.36,7706.83 10654.04,7707.79 10647.07,7709.28 10643.53,7710.75 10644.62,7715.71 10651.36,7720.25 10656.24,7720.61 10657.98,7725.05 10658.98,7774.56"/>
    <poly id="502506661" type="water" color="181,209,209" fill="1" layer="-4.00" shape="10505.93,7638.08 10499.19,7634.33 10496.25,7627.79 10487.41,7586.73 10482.56,7553.35 10486.45,7543.11 10496.34,7545.66 10507.07,7553.71 10540.48,7587.01 10556.51,7600.39 10569.39,7615.89 10570.55,7631.47 10566.92,7638.83 10557.83,7639.03 10512.26,7639.08 10505.93,7638.08"/>
    <poly id="502506665" type="landuse" color="194,194,130" fill="1" layer="-3.00" shape="11087.88,6090.35 11490.22,6091.59 11890.47,6092.83 11889.60,5715.30 11883.17,5709.31 11085.87,5711.78 11087.88,6090.35"/>
    <poly id="502511006" type="building" color="255,230,230" fill="1" layer="-1.00" shape="12111.13,6873.60 12110.99,6895.07 12120.93,6895.14 12121.08,6873.67 12111.13,6873.60"/>
    <poly id="502511048" type="building" color="255,230,230" fill="1" layer="-1.00" shape="11276.81,6506.00 11261.47,6516.86 11269.12,6527.55 11284.45,6516.70 11276.81,6506.00"/>
    <poly id="502511049" type="building" color="255,230,230" fill="1" layer="-1.00" shape="11383.29,6530.62 11382.74,6521.98 11363.35,6523.21 11364.95,6536.63 11373.38,6535.71 11373.12,6531.41 11383.29,6530.62"/>
    <poly id="502511050" type="building" color="255,230,230" fill="1" layer="-1.00" shape="11310.73,6518.09 11321.41,6518.15 11321.52,6497.09 11310.85,6497.03 11310.73,6518.09"/>
    <poly id="502511051" type="building" color="255,230,230" fill="1" layer="-1.00" shape="11339.10,6592.50 11339.17,6582.87 11314.55,6582.71 11314.47,6592.34 11339.10,6592.50"/>
    <poly id="502511052" type="building" color="255,230,230" fill="1" layer="-1.00" shape="11368.95,6575.53 11369.66,6598.86 11378.02,6598.61 11377.31,6575.28 11368.95,6575.53"/>
    <poly id="502511053" type="building" color="255,230,230" fill="1" layer="-1.00" shape="11465.95,6567.07 11466.43,6590.13 11471.24,6590.03 11470.76,6566.97 11465.95,6567.07"/>
    <poly id="502511054" type="building" color="255,230,230" fill="1" layer="-1.00" shape="11478.80,6538.82 11478.99,6550.14 11485.63,6550.02 11485.45,6538.70 11478.80,6538.82"/>
    <poly id="502511055" type="building" color="255,230,230" fill="1" layer="-1.00" shape="11460.90,6512.21 11473.71,6527.79 11480.78,6522.05 11467.97,6506.46 11460.90,6512.21"/>
    <poly id="502511056" type="building" color="255,230,230" fill="1" layer="-1.00" shape="11427.78,6502.02 11427.84,6492.98 11411.26,6492.86 11411.18,6501.90 11427.78,6502.02"/>
    <poly id="502511057" type="building" color="255,230,230" fill="1" layer="-1.00" shape="11353.15,6490.02 11353.18,6509.08 11366.35,6509.06 11366.32,6490.00 11353.15,6490.02"/>
    <poly id="502511058" type="building" color="255,230,230" fill="1" layer="-1.00" shape="11381.61,6473.84 11381.48,6483.64 11389.38,6483.74 11389.52,6473.95 11381.61,6473.84"/>
    <poly id="502511059" type="building" color="255,230,230" fill="1" layer="-1.00" shape="11396.91,6457.72 11396.99,6449.79 11384.18,6449.85 11384.11,6457.59 11396.91,6457.72"/>
    <poly id="502511060" type="building" color="255,230,230" fill="1" layer="-1.00" shape="11384.18,6449.85 11384.23,6443.10 11376.14,6443.04 11376.09,6449.78 11384.18,6449.85"/>
    <poly id="502511061" type="building" color="255,230,230" fill="1" layer="-1.00" shape="11354.49,6464.99 11363.84,6464.99 11363.84,6448.73 11354.50,6448.73 11354.49,6464.99"/>
    <poly id="502511062" type="building" color="255,230,230" fill="1" layer="-1.00" shape="11401.40,6363.06 11401.28,6387.83 11412.88,6387.89 11412.99,6363.11 11401.40,6363.06"/>
    <poly id="502511063" type="building" color="255,230,230" fill="1" layer="-1.00" shape="11461.89,6325.61 11485.19,6325.81 11485.28,6315.39 11461.98,6315.19 11461.89,6325.61"/>
    <poly id="502511064" type="building" color="255,230,230" fill="1" layer="-1.00" shape="11448.05,6347.94 11458.52,6348.20 11459.04,6327.20 11448.57,6326.95 11448.05,6347.94"/>
    <poly id="502511065" type="building" color="255,230,230" fill="1" layer="-1.00" shape="11410.00,6329.66 11420.84,6329.83 11420.97,6321.05 11410.13,6320.88 11410.00,6329.66"/>
    <poly id="502511066" type="building" color="255,230,230" fill="1" layer="-1.00" shape="11360.83,6319.22 11360.95,6347.13 11374.65,6347.07 11374.53,6319.16 11360.83,6319.22"/>
    <poly id="502511067" type="building" color="255,230,230" fill="1" layer="-1.00" shape="11347.44,6297.43 11362.29,6296.74 11361.40,6277.93 11350.77,6278.59 11351.48,6289.71 11347.00,6290.07 11347.44,6297.43"/>
    <poly id="502511068" type="building" color="255,230,230" fill="1" layer="-1.00" shape="11345.83,6249.95 11360.28,6249.56 11359.93,6236.48 11345.47,6236.87 11345.83,6249.95"/>
    <poly id="502511069" type="building" color="255,230,230" fill="1" layer="-1.00" shape="11353.16,6265.69 11372.08,6265.24 11371.90,6257.55 11352.97,6258.00 11353.16,6265.69"/>
    <poly id="502511070" type="building" color="255,230,230" fill="1" layer="-1.00" shape="11415.39,6262.16 11455.18,6262.37 11455.35,6230.53 11415.57,6230.31 11415.39,6262.16"/>
    <poly id="502511071" type="building" color="255,230,230" fill="1" layer="-1.00" shape="11417.83,6142.64 11418.03,6156.48 11426.56,6156.35 11426.36,6142.52 11417.83,6142.64"/>
    <poly id="502511072" type="building" color="255,230,230" fill="1" layer="-1.00" shape="11328.74,6140.44 11350.35,6154.31 11355.18,6146.87 11333.57,6133.01 11328.74,6140.44"/>
    <poly id="502511073" type="building" color="255,230,230" fill="1" layer="-1.00" shape="11094.39,6160.54 11275.31,6160.22 11275.21,6103.22 11094.29,6103.54 11094.39,6160.54"/>
    <poly id="502511075" type="building" color="255,230,230" fill="1" layer="-1.00" shape="11474.44,7805.54 11490.49,7805.32 11490.36,7795.41 11474.30,7795.62 11474.44,7805.54"/>
    <poly id="502511076" type="building" color="255,230,230" fill="1" layer="-1.00" shape="11447.35,7634.12 11447.35,7655.08 11456.69,7655.08 11456.70,7634.12 11447.35,7634.12"/>
    <poly id="502511077" type="building" color="255,230,230" fill="1" layer="-1.00" shape="11438.62,7677.47 11462.33,7677.68 11462.40,7669.16 11438.70,7668.95 11438.62,7677.47"/>
    <poly id="502511078" type="building" color="255,230,230" fill="1" layer="-1.00" shape="11311.90,7518.59 11330.99,7517.95 11330.66,7508.26 11311.57,7508.90 11311.90,7518.59"/>
    <poly id="502511079" type="building" color="255,230,230" fill="1" layer="-1.00" shape="11310.70,7467.83 11310.64,7477.79 11326.77,7477.89 11326.84,7467.93 11310.70,7467.83"/>
    <poly id="502511080" type="building" color="255,230,230" fill="1" layer="-1.00" shape="11273.63,7450.44 11273.21,7472.31 11285.62,7472.56 11286.05,7450.68 11273.63,7450.44"/>
    <poly id="502511081" type="building" color="255,230,230" fill="1" layer="-1.00" shape="11367.07,7421.92 11388.67,7421.77 11388.61,7413.75 11367.01,7413.90 11367.07,7421.92"/>
    <poly id="502511082" type="building" color="255,230,230" fill="1" layer="-1.00" shape="11363.09,7441.27 11363.22,7436.95 11351.21,7436.58 11351.07,7440.90 11363.09,7441.27"/>
    <poly id="502511083" type="building" color="255,230,230" fill="1" layer="-1.00" shape="11418.62,7430.02 11424.61,7430.31 11424.89,7424.37 11418.91,7424.09 11418.62,7430.02"/>
    <poly id="502511084" type="building" color="255,230,230" fill="1" layer="-1.00" shape="11416.04,7423.02 11420.98,7422.87 11420.86,7418.88 11415.91,7419.04 11416.04,7423.02"/>
    <poly id="502511085" type="building" color="255,230,230" fill="1" layer="-1.00" shape="11421.47,7370.23 11421.90,7376.87 11425.79,7376.61 11425.35,7369.97 11421.47,7370.23"/>
    <poly id="502511086" type="building" color="255,230,230" fill="1" layer="-1.00" shape="11423.29,7332.14 11423.14,7338.81 11426.48,7338.89 11426.63,7332.22 11423.29,7332.14"/>
    <poly id="502511087" type="building" color="255,230,230" fill="1" layer="-1.00" shape="11415.13,7348.59 11421.75,7348.68 11421.87,7338.43 11415.27,7338.35 11415.13,7348.59"/>
    <poly id="502511088" type="building" color="255,230,230" fill="1" layer="-1.00" shape="11449.55,7351.89 11457.16,7351.90 11457.18,7336.68 11449.58,7336.67 11449.55,7351.89"/>
    <poly id="502511089" type="building" color="255,230,230" fill="1" layer="-1.00" shape="11449.21,7387.92 11456.78,7387.83 11456.60,7371.14 11449.03,7371.23 11449.21,7387.92"/>
    <poly id="502511090" type="building" color="255,230,230" fill="1" layer="-1.00" shape="11440.09,7449.06 11448.78,7449.40 11449.56,7429.04 11440.87,7428.71 11440.09,7449.06"/>
    <poly id="502511091" type="building" color="255,230,230" fill="1" layer="-1.00" shape="11410.17,7465.57 11410.42,7484.96 11421.55,7484.82 11421.30,7465.43 11410.17,7465.57"/>
    <poly id="502511092" type="building" color="255,230,230" fill="1" layer="-1.00" shape="11452.60,7554.96 11462.74,7554.37 11461.48,7533.22 11451.35,7533.83 11452.60,7554.96"/>
    <poly id="502511093" type="building" color="255,230,230" fill="1" layer="-1.00" shape="11455.12,7586.25 11463.81,7585.87 11462.75,7562.35 11454.05,7562.73 11455.12,7586.25"/>
    <poly id="502511094" type="building" color="255,230,230" fill="1" layer="-1.00" shape="11453.31,7601.39 11453.20,7616.64 11462.62,7616.71 11462.73,7601.46 11453.31,7601.39"/>
    <poly id="502511095" type="building" color="255,230,230" fill="1" layer="-1.00" shape="11382.27,7573.91 11382.43,7557.80 11359.45,7557.58 11359.29,7573.70 11382.27,7573.91"/>
    <poly id="502511096" type="building" color="255,230,230" fill="1" layer="-1.00" shape="11341.38,7640.32 11340.80,7627.82 11321.83,7628.68 11322.41,7641.19 11341.38,7640.32"/>
    <poly id="502511097" type="building" color="255,230,230" fill="1" layer="-1.00" shape="11283.74,7760.61 11305.53,7760.01 11305.27,7750.64 11283.48,7751.25 11283.74,7760.61"/>
    <poly id="502511099" type="building" color="255,230,230" fill="1" layer="-1.00" shape="11341.73,7795.91 11357.80,7795.07 11357.13,7782.17 11341.05,7783.01 11341.73,7795.91"/>
    <poly id="502511100" type="building" color="255,230,230" fill="1" layer="-1.00" shape="11308.82,7798.95 11322.32,7798.66 11322.14,7790.02 11308.64,7790.31 11308.82,7798.95"/>
    <poly id="502511101" type="building" color="255,230,230" fill="1" layer="-1.00" shape="11121.74,7918.41 11122.10,7930.71 11128.09,7930.53 11127.73,7918.24 11121.74,7918.41"/>
    <poly id="502511102" type="building" color="255,230,230" fill="1" layer="-1.00" shape="11115.03,7930.24 11119.85,7930.28 11119.93,7917.95 11115.13,7917.91 11115.03,7930.24"/>
    <poly id="502511103" type="building" color="255,230,230" fill="1" layer="-1.00" shape="11126.52,7885.23 11126.18,7900.69 11140.14,7900.98 11140.47,7885.53 11126.52,7885.23"/>
    <poly id="502511104" type="building" color="255,230,230" fill="1" layer="-1.00" shape="11207.57,7858.01 11206.09,7844.40 11193.32,7845.77 11194.80,7859.39 11207.57,7858.01"/>
    <poly id="502511105" type="building" color="255,230,230" fill="1" layer="-1.00" shape="11151.67,7790.94 11151.11,7800.27 11167.84,7801.26 11168.40,7791.93 11151.67,7790.94"/>