<configuration>
	<input>
		<net-file value="3choices.net.xml" />
		<route-files value="3choices.rou.xml" />
		<gui-settings-file value="3choices.settings.xml" />
		<error-log value="errors.txt" />
	</input>
	<time>
		<begin value="0"/>
		<end value="10000"/>
	</time>
</configuration>
