<routes>
	<vType id="chevy_s10" accel="0.6" decel="1.3" sigma="0.4" length="5" minGap="2.5" maxSpeed="10" guiShape="passenger"/>

	<route id="top" edges="gneE0 gneE5 gneE6 gneE4" />
	<route id="middle" edges="gneE0 gneE2 gneE4" />
	<route id="bottom" edges="gneE0 gneE7 gneE8 gneE4"/>

	<vehicle id="middle_0" type="chevy_s10" route="middle" depart="0" color="0,1,0"/>
	<vehicle id="middle_1" type="chevy_s10" route="middle" depart="10" color="0,1,0"/>
	<vehicle id="bottom_2" type="chevy_s10" route="bottom" depart="20" color="0,0,1"/>
	<vehicle id="top_3" type="chevy_s10" route="top" depart="30" color="1,0,0"/>
	<vehicle id="top_4" type="chevy_s10" route="top" depart="40" color="1,0,0"/>
	<vehicle id="middle_5" type="chevy_s10" route="middle" depart="50" color="0,1,0"/>
	<vehicle id="middle_6" type="chevy_s10" route="middle" depart="60" color="0,1,0"/>
	<vehicle id="top_7" type="chevy_s10" route="top" depart="70" color="1,0,0"/>
	<vehicle id="middle_8" type="chevy_s10" route="middle" depart="80" color="0,1,0"/>
	<vehicle id="middle_9" type="chevy_s10" route="middle" depart="90" color="0,1,0"/>
	<vehicle id="middle_10" type="chevy_s10" route="middle" depart="100" color="0,1,0"/>
	<vehicle id="top_11" type="chevy_s10" route="top" depart="110" color="1,0,0"/>
	<vehicle id="middle_12" type="chevy_s10" route="middle" depart="120" color="0,1,0"/>
	<vehicle id="middle_13" type="chevy_s10" route="middle" depart="130" color="0,1,0"/>
	<vehicle id="bottom_14" type="chevy_s10" route="bottom" depart="140" color="0,0,1"/>
	<vehicle id="bottom_15" type="chevy_s10" route="bottom" depart="150" color="0,0,1"/>
	<vehicle id="top_16" type="chevy_s10" route="top" depart="160" color="1,0,0"/>
	<vehicle id="middle_17" type="chevy_s10" route="middle" depart="170" color="0,1,0"/>
	<vehicle id="bottom_18" type="chevy_s10" route="bottom" depart="180" color="0,0,1"/>
	<vehicle id="top_19" type="chevy_s10" route="top" depart="190" color="1,0,0"/>
	<vehicle id="top_20" type="chevy_s10" route="top" depart="200" color="1,0,0"/>
	<vehicle id="middle_21" type="chevy_s10" route="middle" depart="210" color="0,1,0"/>
	<vehicle id="middle_22" type="chevy_s10" route="middle" depart="220" color="0,1,0"/>
	<vehicle id="top_23" type="chevy_s10" route="top" depart="230" color="1,0,0"/>
	<vehicle id="top_24" type="chevy_s10" route="top" depart="240" color="1,0,0"/>
	<vehicle id="middle_25" type="chevy_s10" route="middle" depart="250" color="0,1,0"/>
	<vehicle id="middle_26" type="chevy_s10" route="middle" depart="260" color="0,1,0"/>
	<vehicle id="top_27" type="chevy_s10" route="top" depart="270" color="1,0,0"/>
	<vehicle id="top_28" type="chevy_s10" route="top" depart="280" color="1,0,0"/>
	<vehicle id="top_29" type="chevy_s10" route="top" depart="290" color="1,0,0"/>
	<vehicle id="bottom_30" type="chevy_s10" route="bottom" depart="300" color="0,0,1"/>
	<vehicle id="top_31" type="chevy_s10" route="top" depart="310" color="1,0,0"/>
	<vehicle id="middle_32" type="chevy_s10" route="middle" depart="320" color="0,1,0"/>
	<vehicle id="top_33" type="chevy_s10" route="top" depart="330" color="1,0,0"/>
	<vehicle id="top_34" type="chevy_s10" route="top" depart="340" color="1,0,0"/>
	<vehicle id="top_35" type="chevy_s10" route="top" depart="350" color="1,0,0"/>
	<vehicle id="middle_36" type="chevy_s10" route="middle" depart="360" color="0,1,0"/>
	<vehicle id="middle_37" type="chevy_s10" route="middle" depart="370" color="0,1,0"/>
	<vehicle id="bottom_38" type="chevy_s10" route="bottom" depart="380" color="0,0,1"/>
	<vehicle id="bottom_39" type="chevy_s10" route="bottom" depart="390" color="0,0,1"/>
	<vehicle id="top_40" type="chevy_s10" route="top" depart="400" color="1,0,0"/>
	<vehicle id="middle_41" type="chevy_s10" route="middle" depart="410" color="0,1,0"/>
	<vehicle id="top_42" type="chevy_s10" route="top" depart="420" color="1,0,0"/>
	<vehicle id="bottom_43" type="chevy_s10" route="bottom" depart="430" color="0,0,1"/>
	<vehicle id="middle_44" type="chevy_s10" route="middle" depart="440" color="0,1,0"/>
	<vehicle id="middle_45" type="chevy_s10" route="middle" depart="450" color="0,1,0"/>
	<vehicle id="bottom_46" type="chevy_s10" route="bottom" depart="460" color="0,0,1"/>
	<vehicle id="bottom_47" type="chevy_s10" route="bottom" depart="470" color="0,0,1"/>
	<vehicle id="top_48" type="chevy_s10" route="top" depart="480" color="1,0,0"/>
	<vehicle id="middle_49" type="chevy_s10" route="middle" depart="490" color="0,1,0"/>
	<vehicle id="top_50" type="chevy_s10" route="top" depart="500" color="1,0,0"/>
	<vehicle id="middle_51" type="chevy_s10" route="middle" depart="510" color="0,1,0"/>
	<vehicle id="middle_52" type="chevy_s10" route="middle" depart="520" color="0,1,0"/>
	<vehicle id="bottom_53" type="chevy_s10" route="bottom" depart="530" color="0,0,1"/>
	<vehicle id="middle_54" type="chevy_s10" route="middle" depart="540" color="0,1,0"/>
	<vehicle id="middle_55" type="chevy_s10" route="middle" depart="550" color="0,1,0"/>
	<vehicle id="middle_56" type="chevy_s10" route="middle" depart="560" color="0,1,0"/>
	<vehicle id="top_57" type="chevy_s10" route="top" depart="570" color="1,0,0"/>
	<vehicle id="bottom_58" type="chevy_s10" route="bottom" depart="580" color="0,0,1"/>
	<vehicle id="middle_59" type="chevy_s10" route="middle" depart="590" color="0,1,0"/>
	<vehicle id="bottom_60" type="chevy_s10" route="bottom" depart="600" color="0,0,1"/>
	<vehicle id="top_61" type="chevy_s10" route="top" depart="610" color="1,0,0"/>
	<vehicle id="top_62" type="chevy_s10" route="top" depart="620" color="1,0,0"/>
	<vehicle id="middle_63" type="chevy_s10" route="middle" depart="630" color="0,1,0"/>
	<vehicle id="bottom_64" type="chevy_s10" route="bottom" depart="640" color="0,0,1"/>
	<vehicle id="top_65" type="chevy_s10" route="top" depart="650" color="1,0,0"/>
	<vehicle id="top_66" type="chevy_s10" route="top" depart="660" color="1,0,0"/>
	<vehicle id="top_67" type="chevy_s10" route="top" depart="670" color="1,0,0"/>
	<vehicle id="bottom_68" type="chevy_s10" route="bottom" depart="680" color="0,0,1"/>
	<vehicle id="bottom_69" type="chevy_s10" route="bottom" depart="690" color="0,0,1"/>
	<vehicle id="top_70" type="chevy_s10" route="top" depart="700" color="1,0,0"/>
	<vehicle id="middle_71" type="chevy_s10" route="middle" depart="710" color="0,1,0"/>
	<vehicle id="middle_72" type="chevy_s10" route="middle" depart="720" color="0,1,0"/>
	<vehicle id="top_73" type="chevy_s10" route="top" depart="730" color="1,0,0"/>
	<vehicle id="top_74" type="chevy_s10" route="top" depart="740" color="1,0,0"/>
	<vehicle id="middle_75" type="chevy_s10" route="middle" depart="750" color="0,1,0"/>
	<vehicle id="middle_76" type="chevy_s10" route="middle" depart="760" color="0,1,0"/>
	<vehicle id="top_77" type="chevy_s10" route="top" depart="770" color="1,0,0"/>
	<vehicle id="bottom_78" type="chevy_s10" route="bottom" depart="780" color="0,0,1"/>
	<vehicle id="bottom_79" type="chevy_s10" route="bottom" depart="790" color="0,0,1"/>
	<vehicle id="top_80" type="chevy_s10" route="top" depart="800" color="1,0,0"/>
	<vehicle id="middle_81" type="chevy_s10" route="middle" depart="810" color="0,1,0"/>
	<vehicle id="bottom_82" type="chevy_s10" route="bottom" depart="820" color="0,0,1"/>
	<vehicle id="top_83" type="chevy_s10" route="top" depart="830" color="1,0,0"/>
	<vehicle id="top_84" type="chevy_s10" route="top" depart="840" color="1,0,0"/>
	<vehicle id="bottom_85" type="chevy_s10" route="bottom" depart="850" color="0,0,1"/>
	<vehicle id="middle_86" type="chevy_s10" route="middle" depart="860" color="0,1,0"/>
	<vehicle id="bottom_87" type="chevy_s10" route="bottom" depart="870" color="0,0,1"/>
	<vehicle id="middle_88" type="chevy_s10" route="middle" depart="880" color="0,1,0"/>
	<vehicle id="bottom_89" type="chevy_s10" route="bottom" depart="890" color="0,0,1"/>
	<vehicle id="middle_90" type="chevy_s10" route="middle" depart="900" color="0,1,0"/>
	<vehicle id="bottom_91" type="chevy_s10" route="bottom" depart="910" color="0,0,1"/>
	<vehicle id="bottom_92" type="chevy_s10" route="bottom" depart="920" color="0,0,1"/>
	<vehicle id="top_93" type="chevy_s10" route="top" depart="930" color="1,0,0"/>
	<vehicle id="top_94" type="chevy_s10" route="top" depart="940" color="1,0,0"/>
	<vehicle id="middle_95" type="chevy_s10" route="middle" depart="950" color="0,1,0"/>
	<vehicle id="top_96" type="chevy_s10" route="top" depart="960" color="1,0,0"/>
	<vehicle id="middle_97" type="chevy_s10" route="middle" depart="970" color="0,1,0"/>
	<vehicle id="top_98" type="chevy_s10" route="top" depart="980" color="1,0,0"/>
	<vehicle id="bottom_99" type="chevy_s10" route="bottom" depart="990" color="0,0,1"/>
	<vehicle id="bottom_100" type="chevy_s10" route="bottom" depart="1000" color="0,0,1"/>
	<vehicle id="middle_101" type="chevy_s10" route="middle" depart="1010" color="0,1,0"/>
	<vehicle id="top_102" type="chevy_s10" route="top" depart="1020" color="1,0,0"/>
	<vehicle id="top_103" type="chevy_s10" route="top" depart="1030" color="1,0,0"/>
	<vehicle id="middle_104" type="chevy_s10" route="middle" depart="1040" color="0,1,0"/>
	<vehicle id="top_105" type="chevy_s10" route="top" depart="1050" color="1,0,0"/>
	<vehicle id="top_106" type="chevy_s10" route="top" depart="1060" color="1,0,0"/>
	<vehicle id="bottom_107" type="chevy_s10" route="bottom" depart="1070" color="0,0,1"/>
	<vehicle id="middle_108" type="chevy_s10" route="middle" depart="1080" color="0,1,0"/>
	<vehicle id="top_109" type="chevy_s10" route="top" depart="1090" color="1,0,0"/>
	<vehicle id="top_110" type="chevy_s10" route="top" depart="1100" color="1,0,0"/>
	<vehicle id="middle_111" type="chevy_s10" route="middle" depart="1110" color="0,1,0"/>
	<vehicle id="middle_112" type="chevy_s10" route="middle" depart="1120" color="0,1,0"/>
	<vehicle id="middle_113" type="chevy_s10" route="middle" depart="1130" color="0,1,0"/>
	<vehicle id="bottom_114" type="chevy_s10" route="bottom" depart="1140" color="0,0,1"/>
	<vehicle id="bottom_115" type="chevy_s10" route="bottom" depart="1150" color="0,0,1"/>
	<vehicle id="middle_116" type="chevy_s10" route="middle" depart="1160" color="0,1,0"/>
	<vehicle id="bottom_117" type="chevy_s10" route="bottom" depart="1170" color="0,0,1"/>
	<vehicle id="top_118" type="chevy_s10" route="top" depart="1180" color="1,0,0"/>
	<vehicle id="top_119" type="chevy_s10" route="top" depart="1190" color="1,0,0"/>
	<vehicle id="top_120" type="chevy_s10" route="top" depart="1200" color="1,0,0"/>
	<vehicle id="bottom_121" type="chevy_s10" route="bottom" depart="1210" color="0,0,1"/>
	<vehicle id="bottom_122" type="chevy_s10" route="bottom" depart="1220" color="0,0,1"/>
	<vehicle id="top_123" type="chevy_s10" route="top" depart="1230" color="1,0,0"/>
	<vehicle id="top_124" type="chevy_s10" route="top" depart="1240" color="1,0,0"/>
	<vehicle id="bottom_125" type="chevy_s10" route="bottom" depart="1250" color="0,0,1"/>
	<vehicle id="top_126" type="chevy_s10" route="top" depart="1260" color="1,0,0"/>
	<vehicle id="bottom_127" type="chevy_s10" route="bottom" depart="1270" color="0,0,1"/>
	<vehicle id="top_128" type="chevy_s10" route="top" depart="1280" color="1,0,0"/>
	<vehicle id="bottom_129" type="chevy_s10" route="bottom" depart="1290" color="0,0,1"/>
	<vehicle id="middle_130" type="chevy_s10" route="middle" depart="1300" color="0,1,0"/>
	<vehicle id="middle_131" type="chevy_s10" route="middle" depart="1310" color="0,1,0"/>
	<vehicle id="top_132" type="chevy_s10" route="top" depart="1320" color="1,0,0"/>
	<vehicle id="middle_133" type="chevy_s10" route="middle" depart="1330" color="0,1,0"/>
	<vehicle id="bottom_134" type="chevy_s10" route="bottom" depart="1340" color="0,0,1"/>
	<vehicle id="middle_135" type="chevy_s10" route="middle" depart="1350" color="0,1,0"/>
	<vehicle id="bottom_136" type="chevy_s10" route="bottom" depart="1360" color="0,0,1"/>
	<vehicle id="bottom_137" type="chevy_s10" route="bottom" depart="1370" color="0,0,1"/>
	<vehicle id="top_138" type="chevy_s10" route="top" depart="1380" color="1,0,0"/>
	<vehicle id="top_139" type="chevy_s10" route="top" depart="1390" color="1,0,0"/>
	<vehicle id="bottom_140" type="chevy_s10" route="bottom" depart="1400" color="0,0,1"/>
	<vehicle id="middle_141" type="chevy_s10" route="middle" depart="1410" color="0,1,0"/>
	<vehicle id="bottom_142" type="chevy_s10" route="bottom" depart="1420" color="0,0,1"/>
	<vehicle id="bottom_143" type="chevy_s10" route="bottom" depart="1430" color="0,0,1"/>
	<vehicle id="top_144" type="chevy_s10" route="top" depart="1440" color="1,0,0"/>
	<vehicle id="middle_145" type="chevy_s10" route="middle" depart="1450" color="0,1,0"/>
	<vehicle id="top_146" type="chevy_s10" route="top" depart="1460" color="1,0,0"/>
	<vehicle id="top_147" type="chevy_s10" route="top" depart="1470" color="1,0,0"/>
	<vehicle id="bottom_148" type="chevy_s10" route="bottom" depart="1480" color="0,0,1"/>
	<vehicle id="bottom_149" type="chevy_s10" route="bottom" depart="1490" color="0,0,1"/>
	<vehicle id="top_150" type="chevy_s10" route="top" depart="1500" color="1,0,0"/>
	<vehicle id="middle_151" type="chevy_s10" route="middle" depart="1510" color="0,1,0"/>
	<vehicle id="bottom_152" type="chevy_s10" route="bottom" depart="1520" color="0,0,1"/>
	<vehicle id="bottom_153" type="chevy_s10" route="bottom" depart="1530" color="0,0,1"/>
	<vehicle id="top_154" type="chevy_s10" route="top" depart="1540" color="1,0,0"/>
	<vehicle id="top_155" type="chevy_s10" route="top" depart="1550" color="1,0,0"/>
	<vehicle id="middle_156" type="chevy_s10" route="middle" depart="1560" color="0,1,0"/>
	<vehicle id="middle_157" type="chevy_s10" route="middle" depart="1570" color="0,1,0"/>
	<vehicle id="top_158" type="chevy_s10" route="top" depart="1580" color="1,0,0"/>
	<vehicle id="middle_159" type="chevy_s10" route="middle" depart="1590" color="0,1,0"/>
	<vehicle id="top_160" type="chevy_s10" route="top" depart="1600" color="1,0,0"/>
	<vehicle id="top_161" type="chevy_s10" route="top" depart="1610" color="1,0,0"/>
	<vehicle id="bottom_162" type="chevy_s10" route="bottom" depart="1620" color="0,0,1"/>
	<vehicle id="top_163" type="chevy_s10" route="top" depart="1630" color="1,0,0"/>
	<vehicle id="middle_164" type="chevy_s10" route="middle" depart="1640" color="0,1,0"/>
	<vehicle id="middle_165" type="chevy_s10" route="middle" depart="1650" color="0,1,0"/>
	<vehicle id="top_166" type="chevy_s10" route="top" depart="1660" color="1,0,0"/>
	<vehicle id="bottom_167" type="chevy_s10" route="bottom" depart="1670" color="0,0,1"/>
	<vehicle id="bottom_168" type="chevy_s10" route="bottom" depart="1680" color="0,0,1"/>
	<vehicle id="middle_169" type="chevy_s10" route="middle" depart="1690" color="0,1,0"/>
	<vehicle id="middle_170" type="chevy_s10" route="middle" depart="1700" color="0,1,0"/>
	<vehicle id="middle_171" type="chevy_s10" route="middle" depart="1710" color="0,1,0"/>
	<vehicle id="top_172" type="chevy_s10" route="top" depart="1720" color="1,0,0"/>
	<vehicle id="top_173" type="chevy_s10" route="top" depart="1730" color="1,0,0"/>
	<vehicle id="middle_174" type="chevy_s10" route="middle" depart="1740" color="0,1,0"/>
	<vehicle id="top_175" type="chevy_s10" route="top" depart="1750" color="1,0,0"/>
	<vehicle id="middle_176" type="chevy_s10" route="middle" depart="1760" color="0,1,0"/>
	<vehicle id="bottom_177" type="chevy_s10" route="bottom" depart="1770" color="0,0,1"/>
	<vehicle id="top_178" type="chevy_s10" route="top" depart="1780" color="1,0,0"/>
	<vehicle id="middle_179" type="chevy_s10" route="middle" depart="1790" color="0,1,0"/>
	<vehicle id="middle_180" type="chevy_s10" route="middle" depart="1800" color="0,1,0"/>
	<vehicle id="bottom_181" type="chevy_s10" route="bottom" depart="1810" color="0,0,1"/>
	<vehicle id="top_182" type="chevy_s10" route="top" depart="1820" color="1,0,0"/>
	<vehicle id="bottom_183" type="chevy_s10" route="bottom" depart="1830" color="0,0,1"/>
	<vehicle id="bottom_184" type="chevy_s10" route="bottom" depart="1840" color="0,0,1"/>
	<vehicle id="middle_185" type="chevy_s10" route="middle" depart="1850" color="0,1,0"/>
	<vehicle id="top_186" type="chevy_s10" route="top" depart="1860" color="1,0,0"/>
	<vehicle id="top_187" type="chevy_s10" route="top" depart="1870" color="1,0,0"/>
	<vehicle id="middle_188" type="chevy_s10" route="middle" depart="1880" color="0,1,0"/>
	<vehicle id="top_189" type="chevy_s10" route="top" depart="1890" color="1,0,0"/>
	<vehicle id="bottom_190" type="chevy_s10" route="bottom" depart="1900" color="0,0,1"/>
	<vehicle id="middle_191" type="chevy_s10" route="middle" depart="1910" color="0,1,0"/>
	<vehicle id="bottom_192" type="chevy_s10" route="bottom" depart="1920" color="0,0,1"/>
	<vehicle id="middle_193" type="chevy_s10" route="middle" depart="1930" color="0,1,0"/>
	<vehicle id="middle_194" type="chevy_s10" route="middle" depart="1940" color="0,1,0"/>
	<vehicle id="top_195" type="chevy_s10" route="top" depart="1950" color="1,0,0"/>
	<vehicle id="bottom_196" type="chevy_s10" route="bottom" depart="1960" color="0,0,1"/>
	<vehicle id="top_197" type="chevy_s10" route="top" depart="1970" color="1,0,0"/>
	<vehicle id="top_198" type="chevy_s10" route="top" depart="1980" color="1,0,0"/>
	<vehicle id="top_199" type="chevy_s10" route="top" depart="1990" color="1,0,0"/>
	<vehicle id="middle_200" type="chevy_s10" route="middle" depart="2000" color="0,1,0"/>
	<vehicle id="top_201" type="chevy_s10" route="top" depart="2010" color="1,0,0"/>
	<vehicle id="top_202" type="chevy_s10" route="top" depart="2020" color="1,0,0"/>
	<vehicle id="middle_203" type="chevy_s10" route="middle" depart="2030" color="0,1,0"/>
	<vehicle id="top_204" type="chevy_s10" route="top" depart="2040" color="1,0,0"/>
	<vehicle id="middle_205" type="chevy_s10" route="middle" depart="2050" color="0,1,0"/>
	<vehicle id="top_206" type="chevy_s10" route="top" depart="2060" color="1,0,0"/>
	<vehicle id="middle_207" type="chevy_s10" route="middle" depart="2070" color="0,1,0"/>
	<vehicle id="bottom_208" type="chevy_s10" route="bottom" depart="2080" color="0,0,1"/>
	<vehicle id="bottom_209" type="chevy_s10" route="bottom" depart="2090" color="0,0,1"/>
	<vehicle id="top_210" type="chevy_s10" route="top" depart="2100" color="1,0,0"/>
	<vehicle id="bottom_211" type="chevy_s10" route="bottom" depart="2110" color="0,0,1"/>
	<vehicle id="bottom_212" type="chevy_s10" route="bottom" depart="2120" color="0,0,1"/>
	<vehicle id="middle_213" type="chevy_s10" route="middle" depart="2130" color="0,1,0"/>
	<vehicle id="bottom_214" type="chevy_s10" route="bottom" depart="2140" color="0,0,1"/>
	<vehicle id="bottom_215" type="chevy_s10" route="bottom" depart="2150" color="0,0,1"/>
	<vehicle id="top_216" type="chevy_s10" route="top" depart="2160" color="1,0,0"/>
	<vehicle id="bottom_217" type="chevy_s10" route="bottom" depart="2170" color="0,0,1"/>
	<vehicle id="middle_218" type="chevy_s10" route="middle" depart="2180" color="0,1,0"/>
	<vehicle id="top_219" type="chevy_s10" route="top" depart="2190" color="1,0,0"/>
	<vehicle id="middle_220" type="chevy_s10" route="middle" depart="2200" color="0,1,0"/>
	<vehicle id="bottom_221" type="chevy_s10" route="bottom" depart="2210" color="0,0,1"/>
	<vehicle id="top_222" type="chevy_s10" route="top" depart="2220" color="1,0,0"/>
	<vehicle id="bottom_223" type="chevy_s10" route="bottom" depart="2230" color="0,0,1"/>
	<vehicle id="top_224" type="chevy_s10" route="top" depart="2240" color="1,0,0"/>
	<vehicle id="top_225" type="chevy_s10" route="top" depart="2250" color="1,0,0"/>
	<vehicle id="bottom_226" type="chevy_s10" route="bottom" depart="2260" color="0,0,1"/>
	<vehicle id="top_227" type="chevy_s10" route="top" depart="2270" color="1,0,0"/>
	<vehicle id="middle_228" type="chevy_s10" route="middle" depart="2280" color="0,1,0"/>
	<vehicle id="middle_229" type="chevy_s10" route="middle" depart="2290" color="0,1,0"/>
	<vehicle id="bottom_230" type="chevy_s10" route="bottom" depart="2300" color="0,0,1"/>
	<vehicle id="middle_231" type="chevy_s10" route="middle" depart="2310" color="0,1,0"/>
	<vehicle id="middle_232" type="chevy_s10" route="middle" depart="2320" color="0,1,0"/>
	<vehicle id="middle_233" type="chevy_s10" route="middle" depart="2330" color="0,1,0"/>
	<vehicle id="top_234" type="chevy_s10" route="top" depart="2340" color="1,0,0"/>
	<vehicle id="bottom_235" type="chevy_s10" route="bottom" depart="2350" color="0,0,1"/>
	<vehicle id="top_236" type="chevy_s10" route="top" depart="2360" color="1,0,0"/>
	<vehicle id="middle_237" type="chevy_s10" route="middle" depart="2370" color="0,1,0"/>
	<vehicle id="top_238" type="chevy_s10" route="top" depart="2380" color="1,0,0"/>
	<vehicle id="middle_239" type="chevy_s10" route="middle" depart="2390" color="0,1,0"/>
	<vehicle id="middle_240" type="chevy_s10" route="middle" depart="2400" color="0,1,0"/>
	<vehicle id="bottom_241" type="chevy_s10" route="bottom" depart="2410" color="0,0,1"/>
	<vehicle id="top_242" type="chevy_s10" route="top" depart="2420" color="1,0,0"/>
	<vehicle id="middle_243" type="chevy_s10" route="middle" depart="2430" color="0,1,0"/>
	<vehicle id="bottom_244" type="chevy_s10" route="bottom" depart="2440" color="0,0,1"/>
	<vehicle id="middle_245" type="chevy_s10" route="middle" depart="2450" color="0,1,0"/>
	<vehicle id="bottom_246" type="chevy_s10" route="bottom" depart="2460" color="0,0,1"/>
	<vehicle id="bottom_247" type="chevy_s10" route="bottom" depart="2470" color="0,0,1"/>
	<vehicle id="bottom_248" type="chevy_s10" route="bottom" depart="2480" color="0,0,1"/>
	<vehicle id="bottom_249" type="chevy_s10" route="bottom" depart="2490" color="0,0,1"/>
	<vehicle id="top_250" type="chevy_s10" route="top" depart="2500" color="1,0,0"/>
	<vehicle id="middle_251" type="chevy_s10" route="middle" depart="2510" color="0,1,0"/>
	<vehicle id="bottom_252" type="chevy_s10" route="bottom" depart="2520" color="0,0,1"/>
	<vehicle id="bottom_253" type="chevy_s10" route="bottom" depart="2530" color="0,0,1"/>
	<vehicle id="middle_254" type="chevy_s10" route="middle" depart="2540" color="0,1,0"/>
	<vehicle id="top_255" type="chevy_s10" route="top" depart="2550" color="1,0,0"/>
	<vehicle id="middle_256" type="chevy_s10" route="middle" depart="2560" color="0,1,0"/>
	<vehicle id="middle_257" type="chevy_s10" route="middle" depart="2570" color="0,1,0"/>
	<vehicle id="middle_258" type="chevy_s10" route="middle" depart="2580" color="0,1,0"/>
	<vehicle id="bottom_259" type="chevy_s10" route="bottom" depart="2590" color="0,0,1"/>
	<vehicle id="middle_260" type="chevy_s10" route="middle" depart="2600" color="0,1,0"/>
	<vehicle id="bottom_261" type="chevy_s10" route="bottom" depart="2610" color="0,0,1"/>
	<vehicle id="top_262" type="chevy_s10" route="top" depart="2620" color="1,0,0"/>
	<vehicle id="middle_263" type="chevy_s10" route="middle" depart="2630" color="0,1,0"/>
	<vehicle id="middle_264" type="chevy_s10" route="middle" depart="2640" color="0,1,0"/>
	<vehicle id="top_265" type="chevy_s10" route="top" depart="2650" color="1,0,0"/>
	<vehicle id="bottom_266" type="chevy_s10" route="bottom" depart="2660" color="0,0,1"/>
	<vehicle id="middle_267" type="chevy_s10" route="middle" depart="2670" color="0,1,0"/>
	<vehicle id="bottom_268" type="chevy_s10" route="bottom" depart="2680" color="0,0,1"/>
	<vehicle id="middle_269" type="chevy_s10" route="middle" depart="2690" color="0,1,0"/>
	<vehicle id="middle_270" type="chevy_s10" route="middle" depart="2700" color="0,1,0"/>
	<vehicle id="middle_271" type="chevy_s10" route="middle" depart="2710" color="0,1,0"/>
	<vehicle id="middle_272" type="chevy_s10" route="middle" depart="2720" color="0,1,0"/>
	<vehicle id="middle_273" type="chevy_s10" route="middle" depart="2730" color="0,1,0"/>
	<vehicle id="top_274" type="chevy_s10" route="top" depart="2740" color="1,0,0"/>
	<vehicle id="bottom_275" type="chevy_s10" route="bottom" depart="2750" color="0,0,1"/>
	<vehicle id="bottom_276" type="chevy_s10" route="bottom" depart="2760" color="0,0,1"/>
	<vehicle id="middle_277" type="chevy_s10" route="middle" depart="2770" color="0,1,0"/>
	<vehicle id="bottom_278" type="chevy_s10" route="bottom" depart="2780" color="0,0,1"/>
	<vehicle id="top_279" type="chevy_s10" route="top" depart="2790" color="1,0,0"/>
	<vehicle id="bottom_280" type="chevy_s10" route="bottom" depart="2800" color="0,0,1"/>
	<vehicle id="top_281" type="chevy_s10" route="top" depart="2810" color="1,0,0"/>
	<vehicle id="bottom_282" type="chevy_s10" route="bottom" depart="2820" color="0,0,1"/>
	<vehicle id="middle_283" type="chevy_s10" route="middle" depart="2830" color="0,1,0"/>
	<vehicle id="bottom_284" type="chevy_s10" route="bottom" depart="2840" color="0,0,1"/>
	<vehicle id="bottom_285" type="chevy_s10" route="bottom" depart="2850" color="0,0,1"/>
	<vehicle id="middle_286" type="chevy_s10" route="middle" depart="2860" color="0,1,0"/>
	<vehicle id="middle_287" type="chevy_s10" route="middle" depart="2870" color="0,1,0"/>
	<vehicle id="bottom_288" type="chevy_s10" route="bottom" depart="2880" color="0,0,1"/>
	<vehicle id="middle_289" type="chevy_s10" route="middle" depart="2890" color="0,1,0"/>
	<vehicle id="top_290" type="chevy_s10" route="top" depart="2900" color="1,0,0"/>
	<vehicle id="bottom_291" type="chevy_s10" route="bottom" depart="2910" color="0,0,1"/>
	<vehicle id="middle_292" type="chevy_s10" route="middle" depart="2920" color="0,1,0"/>
	<vehicle id="top_293" type="chevy_s10" route="top" depart="2930" color="1,0,0"/>
	<vehicle id="bottom_294" type="chevy_s10" route="bottom" depart="2940" color="0,0,1"/>
	<vehicle id="middle_295" type="chevy_s10" route="middle" depart="2950" color="0,1,0"/>
	<vehicle id="bottom_296" type="chevy_s10" route="bottom" depart="2960" color="0,0,1"/>
	<vehicle id="bottom_297" type="chevy_s10" route="bottom" depart="2970" color="0,0,1"/>
	<vehicle id="middle_298" type="chevy_s10" route="middle" depart="2980" color="0,1,0"/>
	<vehicle id="middle_299" type="chevy_s10" route="middle" depart="2990" color="0,1,0"/>
</routes>
