<?xml version="1.0" encoding="UTF-8"?>

<!-- generated on Fri Sep 21 04:24:25 2018 by SUMO polyconvert Version 0.30.0
<?xml version="1.0" encoding="UTF-8"?>

<configuration xmlns:xsi="http://www.w3.org/2001/XMLSchema-instance" xsi:noNamespaceSchemaLocation="http://sumo.dlr.de/xsd/polyconvertConfiguration.xsd">

    <input>
        <net-file value="../Haines_City.net.xml"/>
        <osm-files value="../Haines_City.osm"/>
        <type-file value="osm.typ.xml"/>
    </input>

    <output>
        <output-file value="../Haines_City.poly.xml"/>
    </output>

    <processing>
        <poi-layer-offset value="5"/>
    </processing>

</configuration>
-->

<additional xmlns:xsi="http://www.w3.org/2001/XMLSchema-instance" xsi:noNamespaceSchemaLocation="http://sumo.dlr.de/xsd/additional_file.xsd">
    <location netOffset="-421839.77,-3101044.07" convBoundary="-3232.26,-12873.78,25144.28,25351.49" origBoundary="-81.827873,27.917190,-81.540515,28.262462" projParameter="+proj=utm +zone=17 +ellps=WGS84 +datum=WGS84 +units=m +no_defs"/>

    <poly id="131298804" type="building" color="yellow" fill="1" layer="-1.00" shape="13665.76,7838.74 13665.87,7910.98 13685.61,7910.95 13685.63,7918.24 13694.02,7918.23 13694.01,7910.94 13762.22,7910.82 13762.10,7835.40 13748.29,7835.43 13748.29,7831.92 13731.25,7831.95 13731.26,7835.46 13717.15,7835.48 13717.14,7826.09 13700.79,7826.12 13700.80,7835.51 13693.48,7835.52 13693.49,7838.69 13665.76,7838.74"/>
    <poly id="131298805" type="building" color="yellow" fill="1" layer="-1.00" shape="13714.75,8079.77 13807.15,8079.62 13807.13,8064.29 13714.73,8064.45 13714.75,8079.77"/>
    <poly id="131298806" type="building" color="yellow" fill="1" layer="-1.00" shape="13715.09,7944.83 13715.11,7959.31 13806.71,7959.16 13806.69,7944.68 13715.09,7944.83"/>
    <poly id="131298807" type="building" color="yellow" fill="1" layer="-1.00" shape="13641.77,7967.77 13641.88,8035.21 13690.03,8035.12 13689.92,7967.69 13641.77,7967.77"/>
    <poly id="131298808" type="building" color="yellow" fill="1" layer="-1.00" shape="13883.69,7996.12 13883.65,7966.41 13845.98,7966.48 13845.97,7963.50 13815.41,7963.56 13815.46,7996.23 13883.69,7996.12"/>
    <poly id="131298809" type="building" color="yellow" fill="1" layer="-1.00" shape="13732.75,7978.63 13732.80,8007.08 13728.94,8007.09 13728.95,8013.43 13732.81,8013.42 13732.86,8045.92 13778.73,8045.84 13778.63,7978.55 13732.75,7978.63"/>
    <poly id="176695497" type="building" color="yellow" fill="1" layer="-1.00" shape="13673.01,10412.78 13681.77,10403.54 13694.85,10415.80 13686.09,10425.04 13673.01,10412.78"/>
    <poly id="176695499" type="water" color="181,209,209" fill="1" layer="-4.00" shape="13271.13,10463.08 13285.93,10469.82 13295.99,10479.01 13302.37,10492.60 13297.65,10494.20 13303.51,10506.22 13304.63,10518.98 13303.64,10529.81 13303.15,10538.39 13303.19,10545.01 13303.22,10550.96 13295.29,10546.63 13284.76,10545.30 13275.30,10550.07 13264.77,10553.09 13256.33,10550.69 13253.67,10543.90 13253.06,10530.27 13256.16,10518.72 13254.52,10508.77 13253.94,10498.30 13257.59,10490.94 13260.70,10481.49 13264.86,10470.80 13271.13,10463.08"/>
    <poly id="176695500" type="building" color="yellow" fill="1" layer="-1.00" shape="13606.46,10488.35 13614.17,10479.82 13625.96,10490.37 13618.25,10498.90 13606.46,10488.35"/>
    <poly id="176695501" type="building" color="yellow" fill="1" layer="-1.00" shape="13544.84,10510.61 13554.36,10500.17 13542.89,10489.84 13533.38,10500.28 13544.84,10510.61"/>
    <poly id="176695503" type="building" color="yellow" fill="1" layer="-1.00" shape="13492.94,10491.32 13501.75,10482.13 13514.35,10494.08 13505.55,10503.27 13492.94,10491.32"/>
    <poly id="176695505" type="building" color="yellow" fill="1" layer="-1.00" shape="13583.44,10512.85 13591.73,10503.65 13605.11,10515.59 13596.82,10524.79 13583.44,10512.85"/>
    <poly id="176695506" type="building" color="yellow" fill="1" layer="-1.00" shape="13530.29,10503.64 13541.88,10513.85 13534.35,10522.32 13522.75,10512.11 13530.29,10503.64"/>
    <poly id="176695507" type="building" color="yellow" fill="1" layer="-1.00" shape="13571.71,10526.27 13580.19,10516.87 13593.50,10528.74 13585.01,10538.14 13571.71,10526.27"/>
    <poly id="176695508" type="building" color="yellow" fill="1" layer="-1.00" shape="13652.72,10439.07 13660.30,10430.90 13671.67,10441.34 13664.10,10449.51 13652.72,10439.07"/>
    <poly id="176695509" type="building" color="yellow" fill="1" layer="-1.00" shape="13595.55,10499.40 13603.47,10491.44 13614.66,10502.44 13606.73,10510.42 13595.55,10499.40"/>
    <poly id="176695510" type="residential" color="orange" fill="1" layer="-3.00" shape="13277.85,10437.90 13335.01,10486.15 13339.72,10576.79 13556.26,10583.13 13806.12,10314.48 13958.00,10144.38 13862.76,10069.42 13739.00,10178.58 13677.93,10187.30 13611.85,10141.35 13596.43,10023.17 13571.04,9999.53 13529.84,9984.74 13385.38,9966.13 13276.10,9922.17 13211.65,9889.84 13218.41,9874.26 13179.30,9853.51 13140.18,9926.05 13155.53,9937.50 13095.30,10003.86 13123.61,10074.81 13146.92,10098.98 13184.57,10143.14 13226.61,10218.91 13263.79,10274.45 13278.82,10326.26 13284.32,10368.49 13279.29,10412.54 13277.27,10429.33 13276.51,10434.32 13277.85,10437.90"/>
    <poly id="176695511" type="building" color="yellow" fill="1" layer="-1.00" shape="13619.33,10476.99 13627.59,10468.19 13637.26,10477.16 13628.99,10485.97 13619.33,10476.99"/>
    <poly id="176695512" type="building" color="yellow" fill="1" layer="-1.00" shape="13664.75,10425.64 13670.52,10419.33 13680.31,10428.18 13674.55,10434.50 13664.75,10425.64"/>
    <poly id="176695517" type="building" color="yellow" fill="1" layer="-1.00" shape="13640.38,10450.44 13648.25,10441.87 13660.96,10453.45 13653.09,10462.01 13640.38,10450.44"/>
    <poly id="176695519" type="building" color="yellow" fill="1" layer="-1.00" shape="13629.18,10463.58 13636.73,10455.77 13647.26,10465.84 13639.72,10473.66 13629.18,10463.58"/>
    <poly id="176697316" type="building" color="yellow" fill="1" layer="-1.00" shape="13831.40,10243.72 13839.71,10234.28 13850.99,10244.11 13842.68,10253.55 13831.40,10243.72"/>
    <poly id="176697317" type="building" color="yellow" fill="1" layer="-1.00" shape="13833.98,10179.50 13843.25,10172.25 13854.52,10186.50 13845.25,10193.75 13833.98,10179.50"/>
    <poly id="176697318" type="building" color="yellow" fill="1" layer="-1.00" shape="13759.14,10188.80 13768.65,10180.89 13775.60,10189.15 13771.63,10192.45 13774.44,10195.79 13768.90,10200.40 13759.14,10188.80"/>
    <poly id="176697320" type="building" color="yellow" fill="1" layer="-1.00" shape="13903.48,10167.26 13911.47,10158.60 13920.89,10167.19 13912.89,10175.85 13903.48,10167.26"/>
    <poly id="176697321" type="building" color="yellow" fill="1" layer="-1.00" shape="13832.62,10121.30 13841.69,10113.12 13851.67,10124.07 13845.82,10129.33 13848.45,10132.21 13845.21,10135.12 13832.62,10121.30"/>
    <poly id="176697322" type="building" color="yellow" fill="1" layer="-1.00" shape="13766.33,10249.08 13760.23,10239.14 13750.18,10245.26 13756.27,10255.18 13766.33,10249.08"/>
    <poly id="176697323" type="building" color="yellow" fill="1" layer="-1.00" shape="13878.27,10115.35 13888.79,10122.05 13879.20,10136.96 13868.67,10130.26 13878.27,10115.35"/>
    <poly id="176697324" type="building" color="yellow" fill="1" layer="-1.00" shape="13771.90,10253.91 13779.59,10262.65 13770.84,10270.27 13766.37,10265.21 13763.76,10267.50 13760.53,10263.82 13771.90,10253.91"/>
    <poly id="176697325" type="building" color="yellow" fill="1" layer="-1.00" shape="13799.55,10262.73 13804.53,10257.65 13809.03,10262.01 13812.44,10258.54 13818.53,10264.45 13810.14,10273.01 13799.55,10262.73"/>
    <poly id="176697326" type="building" color="yellow" fill="1" layer="-1.00" shape="13821.27,10249.22 13825.54,10244.51 13836.86,10254.67 13828.52,10263.86 13820.44,10256.59 13824.49,10252.11 13821.27,10249.22"/>
    <poly id="176697327" type="building" color="yellow" fill="1" layer="-1.00" shape="13779.30,10227.44 13784.00,10224.31 13792.61,10237.14 13782.43,10243.91 13776.85,10235.60 13782.34,10231.96 13779.30,10227.44"/>
    <poly id="176697328" type="building" color="yellow" fill="1" layer="-1.00" shape="13854.88,10105.10 13867.43,10106.13 13865.84,10125.44 13858.57,10124.85 13858.99,10119.63 13853.72,10119.19 13854.88,10105.10"/>
    <poly id="176697329" type="building" color="yellow" fill="1" layer="-1.00" shape="13820.71,10132.60 13830.87,10124.14 13842.78,10138.28 13832.61,10146.75 13820.71,10132.60"/>
    <poly id="176697330" type="building" color="yellow" fill="1" layer="-1.00" shape="13820.93,10191.58 13825.72,10187.68 13828.38,10190.93 13833.40,10186.85 13840.91,10196.00 13831.09,10203.97 13820.93,10191.58"/>
    <poly id="176697331" type="building" color="yellow" fill="1" layer="-1.00" shape="13911.45,10149.01 13912.72,10142.06 13917.73,10142.97 13918.59,10138.28 13932.41,10140.78 13930.28,10152.41 13911.45,10149.01"/>
    <poly id="176697332" type="building" color="yellow" fill="1" layer="-1.00" shape="13772.98,10177.90 13781.41,10170.96 13789.94,10181.22 13781.52,10188.16 13772.98,10177.90"/>
    <poly id="176697333" type="building" color="yellow" fill="1" layer="-1.00" shape="13890.75,10130.92 13896.80,10124.24 13906.18,10132.65 13895.63,10144.31 13890.90,10140.07 13895.41,10135.10 13890.75,10130.92"/>
    <poly id="176697334" type="building" color="yellow" fill="1" layer="-1.00" shape="13783.72,10166.77 13793.20,10159.04 13799.34,10166.50 13794.88,10170.14 13799.11,10175.28 13794.09,10179.37 13783.72,10166.77"/>
    <poly id="176697335" type="building" color="yellow" fill="1" layer="-1.00" shape="13843.56,10228.93 13852.24,10219.12 13861.29,10227.02 13852.61,10236.84 13843.56,10228.93"/>
    <poly id="176697336" type="building" color="yellow" fill="1" layer="-1.00" shape="13889.35,10179.17 13893.60,10174.51 13897.59,10178.11 13900.27,10175.17 13907.23,10181.46 13900.29,10189.06 13889.35,10179.17"/>
    <poly id="176697337" type="building" color="yellow" fill="1" layer="-1.00" shape="13795.35,10154.21 13804.42,10146.35 13816.26,10159.88 13807.18,10167.74 13795.35,10154.21"/>
    <poly id="176697339" type="building" color="yellow" fill="1" layer="-1.00" shape="13787.13,10219.74 13797.15,10212.74 13807.64,10227.58 13797.62,10234.58 13787.13,10219.74"/>
    <poly id="176697340" type="building" color="yellow" fill="1" layer="-1.00" shape="13848.11,10170.19 13853.24,10165.77 13852.31,10164.70 13857.25,10160.43 13865.71,10170.13 13855.66,10178.83 13848.11,10170.19"/>
    <poly id="176697341" type="building" color="yellow" fill="1" layer="-1.00" shape="13790.50,10294.74 13800.42,10283.16 13809.95,10291.24 13800.03,10302.83 13790.50,10294.74"/>
    <poly id="176697342" type="building" color="yellow" fill="1" layer="-1.00" shape="13744.13,10197.47 13754.12,10189.11 13765.34,10202.39 13755.34,10210.74 13744.13,10197.47"/>
    <poly id="176697343" type="building" color="yellow" fill="1" layer="-1.00" shape="13809.13,10144.20 13818.62,10136.39 13826.82,10146.23 13822.40,10149.88 13824.82,10152.78 13819.76,10156.95 13809.13,10144.20"/>
    <poly id="176697344" type="building" color="yellow" fill="1" layer="-1.00" shape="13855.96,10212.40 13860.59,10207.38 13864.89,10211.29 13868.30,10207.58 13877.45,10215.92 13869.42,10224.65 13855.96,10212.40"/>
    <poly id="176697345" type="building" color="yellow" fill="1" layer="-1.00" shape="13785.60,10266.81 13794.06,10274.23 13782.04,10287.79 13773.58,10280.36 13785.60,10266.81"/>
    <poly id="176697346" type="building" color="yellow" fill="1" layer="-1.00" shape="13878.73,10190.77 13882.59,10186.37 13893.59,10195.92 13885.59,10205.03 13879.06,10199.36 13883.20,10194.65 13878.73,10190.77"/>
    <poly id="176762042" type="building" color="yellow" fill="1" layer="-1.00" shape="13751.62,10326.23 13755.95,10321.01 13759.67,10324.07 13763.33,10319.68 13771.94,10326.77 13763.95,10336.38 13751.62,10326.23"/>
    <poly id="176762043" type="building" color="yellow" fill="1" layer="-1.00" shape="13725.08,10288.53 13733.84,10279.30 13747.73,10292.34 13738.97,10301.57 13725.08,10288.53"/>
    <poly id="176762044" type="building" color="yellow" fill="1" layer="-1.00" shape="13720.60,10259.56 13729.53,10267.26 13720.65,10277.47 13711.72,10269.77 13720.60,10259.56"/>
    <poly id="176989469" type="building" color="yellow" fill="1" layer="-1.00" shape="13741.05,10338.36 13749.24,10329.62 13758.58,10338.29 13750.40,10347.03 13741.05,10338.36"/>
    <poly id="176989470" type="building" color="yellow" fill="1" layer="-1.00" shape="13709.97,10201.80 13721.24,10200.48 13723.22,10217.29 13711.95,10218.61 13709.97,10201.80"/>
    <poly id="176989471" type="building" color="yellow" fill="1" layer="-1.00" shape="13708.37,10376.26 13716.01,10367.64 13729.04,10379.04 13721.39,10387.68 13708.37,10376.26"/>
    <poly id="176989472" type="building" color="yellow" fill="1" layer="-1.00" shape="13543.91,10487.55 13551.39,10478.89 13565.31,10490.78 13561.39,10495.32 13557.42,10491.93 13553.87,10496.06 13543.91,10487.55"/>
    <poly id="176989473" type="building" color="yellow" fill="1" layer="-1.00" shape="13568.11,10462.69 13574.73,10454.71 13589.56,10466.87 13585.14,10472.20 13580.18,10468.14 13577.99,10470.79 13568.11,10462.69"/>
    <poly id="176989474" type="building" color="yellow" fill="1" layer="-1.00" shape="13664.12,10327.69 13671.52,10319.40 13661.50,10310.56 13657.98,10314.50 13655.10,10311.95 13651.22,10316.32 13664.12,10327.69"/>
    <poly id="176989475" type="building" color="yellow" fill="1" layer="-1.00" shape="13482.35,10503.56 13490.43,10495.34 13502.81,10507.37 13494.74,10515.60 13482.35,10503.56"/>
    <poly id="176989476" type="building" color="yellow" fill="1" layer="-1.00" shape="13642.56,10379.39 13634.69,10388.76 13647.39,10399.33 13651.10,10394.91 13652.92,10396.43 13657.09,10391.47 13642.56,10379.39"/>
    <poly id="176989477" type="building" color="yellow" fill="1" layer="-1.00" shape="13692.11,10247.91 13692.17,10259.02 13705.21,10258.95 13705.15,10247.84 13692.11,10247.91"/>
    <poly id="176989478" type="building" color="yellow" fill="1" layer="-1.00" shape="13578.48,10450.57 13586.27,10441.29 13600.50,10453.12 13592.71,10462.40 13584.96,10455.96 13578.48,10450.57"/>
    <poly id="176989479" type="building" color="yellow" fill="1" layer="-1.00" shape="13715.82,10303.16 13724.28,10293.68 13732.21,10300.68 13728.20,10305.17 13732.03,10308.56 13727.57,10313.56 13715.82,10303.16"/>
    <poly id="176989480" type="building" color="yellow" fill="1" layer="-1.00" shape="13510.18,10522.53 13518.44,10513.87 13529.18,10524.00 13520.91,10532.66 13510.18,10522.53"/>
    <poly id="176989481" type="building" color="yellow" fill="1" layer="-1.00" shape="13685.07,10279.71 13693.62,10270.78 13705.96,10282.48 13697.41,10291.40 13685.07,10279.71"/>
    <poly id="176989482" type="building" color="yellow" fill="1" layer="-1.00" shape="13693.57,10205.34 13706.67,10204.18 13708.02,10219.25 13701.45,10219.84 13701.18,10216.75 13694.63,10217.33 13693.57,10205.34"/>
    <poly id="176989483" type="building" color="yellow" fill="1" layer="-1.00" shape="13665.64,10355.43 13658.53,10363.18 13670.98,10374.49 13674.70,10370.44 13672.11,10368.07 13675.49,10364.39 13665.64,10355.43"/>
    <poly id="176989484" type="building" color="yellow" fill="1" layer="-1.00" shape="13647.79,10258.41 13655.84,10249.51 13664.47,10257.24 13660.16,10261.99 13662.54,10264.13 13658.79,10268.26 13647.79,10258.41"/>
    <poly id="176989485" type="building" color="yellow" fill="1" layer="-1.00" shape="13486.09,10526.45 13492.65,10520.29 13482.13,10509.18 13478.05,10513.00 13481.31,10516.44 13478.82,10518.78 13486.09,10526.45"/>
    <poly id="176989486" type="building" color="yellow" fill="1" layer="-1.00" shape="13725.99,10199.77 13727.11,10211.50 13732.85,10210.96 13733.39,10216.63 13741.07,10215.90 13739.41,10198.50 13725.99,10199.77"/>
    <poly id="176989487" type="building" color="yellow" fill="1" layer="-1.00" shape="13588.39,10437.51 13597.52,10427.34 13611.75,10439.98 13602.62,10450.15 13588.39,10437.51"/>
    <poly id="176989488" type="building" color="yellow" fill="1" layer="-1.00" shape="13554.68,10473.80 13563.48,10465.16 13573.51,10475.28 13569.47,10479.24 13573.07,10482.86 13568.30,10487.54 13554.68,10473.80"/>
    <poly id="176989489" type="building" color="yellow" fill="1" layer="-1.00" shape="13702.43,10316.03 13712.02,10305.69 13724.88,10317.49 13715.30,10327.84 13702.43,10316.03"/>
    <poly id="176989490" type="building" color="yellow" fill="1" layer="-1.00" shape="13674.08,10293.39 13677.44,10289.97 13675.82,10288.39 13681.57,10282.53 13691.05,10291.73 13681.93,10301.02 13674.08,10293.39"/>
    <poly id="176989491" type="building" color="yellow" fill="1" layer="-1.00" shape="13610.92,10417.26 13623.86,10428.32 13615.74,10437.71 13602.81,10426.64 13610.92,10417.26"/>
    <poly id="176989492" type="building" color="yellow" fill="1" layer="-1.00" shape="13721.76,10366.02 13725.32,10362.14 13722.78,10359.82 13726.77,10355.48 13739.40,10366.95 13731.85,10375.18 13721.76,10366.02"/>
    <poly id="176989494" type="building" color="yellow" fill="1" layer="-1.00" shape="13620.25,10404.39 13612.97,10413.23 13626.59,10424.35 13630.22,10419.97 13627.90,10418.07 13631.56,10413.64 13620.25,10404.39"/>
    <poly id="176989495" type="building" color="yellow" fill="1" layer="-1.00" shape="13739.05,10343.10 13735.13,10347.19 13733.80,10345.94 13730.21,10349.69 13742.31,10361.14 13749.82,10353.27 13739.05,10343.10"/>
    <poly id="176989496" type="building" color="yellow" fill="1" layer="-1.00" shape="13679.39,10338.48 13688.41,10328.84 13702.29,10341.73 13693.25,10351.35 13679.39,10338.48"/>
    <poly id="176989497" type="building" color="yellow" fill="1" layer="-1.00" shape="13674.33,10315.65 13681.67,10307.24 13670.55,10297.62 13663.20,10306.04 13674.33,10315.65"/>
    <poly id="176989498" type="building" color="yellow" fill="1" layer="-1.00" shape="13639.04,10328.75 13643.57,10323.90 13646.76,10326.87 13648.67,10324.83 13656.97,10332.54 13650.53,10339.41 13639.04,10328.75"/>
    <poly id="176989499" type="building" color="yellow" fill="1" layer="-1.00" shape="13699.30,10390.55 13702.55,10386.78 13699.84,10384.46 13703.74,10379.93 13717.25,10391.45 13710.10,10399.75 13699.30,10390.55"/>
    <poly id="176989500" type="building" color="yellow" fill="1" layer="-1.00" shape="13676.62,10343.24 13669.39,10351.09 13683.10,10363.60 13687.23,10359.12 13682.90,10355.16 13686.00,10351.81 13676.62,10343.24"/>
    <poly id="176989501" type="building" color="yellow" fill="1" layer="-1.00" shape="13653.67,10367.80 13645.71,10376.39 13659.78,10389.29 13664.32,10384.39 13661.75,10382.03 13665.16,10378.34 13653.67,10367.80"/>
    <poly id="176989502" type="building" color="yellow" fill="1" layer="-1.00" shape="13630.98,10390.94 13623.15,10399.56 13636.85,10411.88 13639.77,10408.67 13638.44,10407.48 13643.36,10402.07 13630.98,10390.94"/>
    <poly id="176989503" type="building" color="yellow" fill="1" layer="-1.00" shape="13692.33,10325.79 13698.91,10318.47 13709.66,10328.05 13706.59,10331.46 13709.50,10334.05 13705.99,10337.96 13692.33,10325.79"/>
    <poly id="176989504" type="building" color="yellow" fill="1" layer="-1.00" shape="13685.93,10401.05 13693.75,10392.43 13706.13,10403.54 13698.32,10412.16 13685.93,10401.05"/>
    <poly id="176994673" type="leisure" color="77,255,77" fill="1" layer="-2.00" shape="16528.37,7700.53 16538.25,7700.32 16538.74,7723.51 16528.86,7723.72 16528.37,7700.53"/>
    <poly id="176994673#1" type="sport" color="79,230,125" fill="1" layer="-2.00" shape="16528.37,7700.53 16538.25,7700.32 16538.74,7723.51 16528.86,7723.72 16528.37,7700.53"/>
    <poly id="176994677" type="building" color="yellow" fill="1" layer="-1.00" shape="15191.25,8988.05 15191.11,9022.03 15216.66,9022.13 15216.62,9031.02 15228.21,9031.06 15228.25,9018.56 15253.73,9018.66 15253.85,8988.28 15191.25,8988.05"/>
    <poly id="176994679" type="building" color="yellow" fill="1" layer="-1.00" shape="15231.54,9689.74 15231.83,9725.71 15272.78,9725.36 15272.77,9700.88 15276.79,9700.61 15276.04,9686.36 15263.17,9686.51 15263.24,9689.91 15231.54,9689.74"/>
    <poly id="176994680" type="water" color="181,209,209" fill="1" layer="-4.00" shape="15675.95,7301.54 15649.70,7321.60 15640.54,7341.68 15636.32,7382.48 15628.12,7426.56 15612.69,7459.24 15582.03,7481.32 15549.50,7506.66 15528.54,7529.83 15512.08,7566.72 15505.77,7611.73 15507.01,7644.23 15518.88,7658.94 15542.89,7655.57 15572.32,7638.65 15588.25,7622.93 15610.25,7596.60 15620.74,7587.12 15631.17,7566.10 15644.45,7526.08 15662.21,7496.63 15691.54,7461.88 15704.33,7449.33 15725.30,7426.16 15740.77,7401.85 15732.26,7386.18 15723.91,7362.20 15715.20,7349.56 15698.23,7329.73 15694.12,7307.84 15675.95,7301.54"/>
    <poly id="176994686" type="building" color="yellow" fill="1" layer="-1.00" shape="15463.36,10107.34 15464.15,10127.74 15499.68,10126.39 15498.90,10105.99 15463.36,10107.34"/>
    <poly id="176994687" type="building" color="yellow" fill="1" layer="-1.00" shape="15244.51,10427.70 15257.99,10427.42 15257.72,10413.90 15275.33,10413.53 15275.92,10441.65 15268.29,10441.80 15268.42,10447.97 15258.84,10448.18 15258.60,10436.90 15244.71,10437.18 15244.51,10427.70"/>
    <poly id="176994690" type="building" color="yellow" fill="1" layer="-1.00" shape="15396.05,10100.51 15396.39,10109.85 15390.09,10110.07 15391.09,10138.26 15411.66,10137.53 15410.32,10100.01 15405.71,10100.16 15396.05,10100.51"/>
    <poly id="176994692" type="building" color="yellow" fill="1" layer="-1.00" shape="15263.63,9970.69 15263.75,9979.11 15287.27,9978.77 15287.14,9970.35 15263.63,9970.69"/>
    <poly id="176994693" type="parking" color="184,184,179" fill="1" layer="-1.00" shape="15402.67,10090.48 15401.38,10023.95 15453.49,10022.95 15452.71,9981.96 15537.73,9980.32 15538.26,10007.99 15532.56,10008.10 15533.38,10049.92 15541.80,10049.75 15542.03,10061.56 15602.88,10060.38 15603.59,10096.71 15541.29,10097.92 15524.25,10098.28 15452.31,10099.65 15452.11,10089.53 15402.67,10090.48"/>
    <poly id="176994696" type="building" color="yellow" fill="1" layer="-1.00" shape="15273.66,9788.36 15283.29,9788.30 15283.45,9815.58 15273.82,9815.64 15273.66,9788.36"/>
    <poly id="176994697" type="parking" color="184,184,179" fill="1" layer="-1.00" shape="15189.26,10143.58 15185.46,9843.11 15249.10,9842.31 15272.76,9842.02 15274.03,9941.60 15302.46,9941.24 15303.33,10009.63 15252.34,10010.26 15251.75,9963.71 15286.15,9963.29 15286.02,9952.69 15238.90,9953.28 15239.74,10019.64 15289.11,10019.02 15290.13,10099.45 15244.65,10100.02 15245.19,10142.87 15189.26,10143.58"/>
    <poly id="176994698" type="building" color="yellow" fill="1" layer="-1.00" shape="15261.66,10120.51 15262.17,10137.73 15276.12,10137.33 15276.01,10133.57 15282.72,10133.37 15282.32,10119.90 15261.66,10120.51"/>
    <poly id="176994699" type="water" color="181,209,209" fill="1" layer="-4.00" shape="15052.51,9589.78 15039.39,9599.28 15035.40,9605.69 15035.79,9614.50 15038.47,9623.92 15029.56,9632.35 15029.62,9644.41 15029.21,9665.90 15033.64,9671.75 15035.64,9686.83 15044.64,9695.17 15058.37,9700.33 15075.23,9700.78 15095.25,9700.14 15113.68,9698.48 15128.44,9700.50 15139.69,9699.50 15146.04,9705.74 15152.20,9710.33 15161.34,9707.77 15173.42,9700.89 15176.34,9691.33 15178.91,9677.69 15182.00,9664.04 15174.03,9653.60 15172.59,9644.80 15172.53,9632.23 15172.28,9620.59 15165.89,9607.00 15160.74,9594.55 15149.64,9586.75 15142.74,9578.92 15132.58,9585.68 15121.18,9585.33 15097.97,9582.31 15091.97,9576.47 15078.44,9575.06 15065.79,9575.13 15058.27,9582.94 15052.51,9589.78"/>
    <poly id="176994700" type="leisure" color="77,255,77" fill="1" layer="-2.00" shape="16511.47,7701.35 16522.03,7701.33 16522.05,7724.48 16511.51,7724.49 16511.47,7701.35"/>
    <poly id="176994700#1" type="sport" color="79,230,125" fill="1" layer="-2.00" shape="16511.47,7701.35 16522.03,7701.33 16522.05,7724.48 16511.51,7724.49 16511.47,7701.35"/>
    <poly id="176994701" type="parking" color="184,184,179" fill="1" layer="-1.00" shape="15381.97,10218.02 15381.02,10338.05 15380.62,10343.66 15380.04,10352.20 15384.90,10356.30 15391.15,10361.58 15412.76,10362.52 15449.61,10357.07 15509.60,10343.66 15527.81,10438.71 15528.56,10442.62 15579.60,10430.29 15590.60,10418.70 15588.80,10408.14 15584.63,10383.62 15541.06,10180.10 15381.97,10218.02"/>
    <poly id="176994703" type="building" color="yellow" fill="1" layer="-1.00" shape="15537.73,9980.32 15538.26,10007.99 15532.56,10008.10 15533.38,10049.92 15541.80,10049.75 15542.03,10061.56 15602.88,10060.38 15601.14,9996.96 15575.79,9996.88 15575.85,9978.84 15537.73,9980.32"/>
    <poly id="176994704" type="water" color="181,209,209" fill="1" layer="-4.00" shape="16092.22,7696.74 16078.67,7685.38 16063.71,7685.36 16041.81,7691.86 16034.31,7707.52 16027.28,7733.87 16018.94,7750.70 15991.41,7767.50 15968.31,7783.36 15935.69,7792.96 15909.42,7808.82 15887.39,7830.96 15880.21,7867.69 15876.12,7891.83 15878.40,7923.27 15888.22,7948.49 15921.99,7956.70 15940.77,7959.63 15954.65,7954.43 15967.26,7947.02 15978.66,7951.05 15991.54,7954.24 16001.83,7945.69 16021.94,7921.58 16024.78,7902.59 16023.68,7892.10 16023.54,7865.89 16025.43,7823.95 16029.48,7793.52 16037.82,7773.55 16047.25,7765.12 16069.52,7749.38 16086.33,7739.86 16097.66,7729.21 16098.60,7709.28 16092.22,7696.74"/>
    <poly id="176994705" type="residential" color="orange" fill="1" layer="-3.00" shape="14079.05,10060.13 14114.11,10046.16 14187.58,10028.89 14250.74,10017.02 14320.22,10003.02 14407.64,9998.36 14459.28,9998.08 14480.51,9987.60 14496.26,9977.02 14528.74,9981.99 14731.02,10171.69 14599.51,10172.49 14594.71,10299.20 14909.78,10301.73 14908.17,10593.13 15046.72,10650.22 15088.75,10630.07 15109.81,10625.76 15129.61,10624.46 15151.88,10609.82 15160.17,10584.62 15163.59,10473.34 15081.61,10473.93 15080.13,10194.06 15037.70,10180.55 15002.08,10219.47 14907.27,10224.17 14882.99,10216.96 14865.99,10189.84 14842.97,10179.59 14823.94,10168.17 14823.47,10119.84 14864.25,10021.20 14857.33,9748.58 14877.33,9745.33 14875.83,9660.42 14912.70,9658.13 14916.22,9527.08 15036.79,9569.52 15102.13,9571.27 15125.30,9569.06 15120.78,9350.92 14785.89,9353.85 14781.58,9336.06 14810.64,9250.99 14713.69,9251.50 14708.68,8943.22 14534.80,8944.14 14529.29,8899.09 14477.74,8915.09 14347.04,8911.60 14264.21,8950.93 14095.58,8948.68 14076.48,8963.37 14070.32,8991.70 14070.27,9377.49 14076.72,9557.87 14062.28,9615.60 14060.45,9666.98 14070.39,9751.83 14073.16,9875.51 14076.99,10038.91 14079.05,10060.13"/>
    <poly id="176994706" type="building" color="yellow" fill="1" layer="-1.00" shape="15564.00,10210.62 15681.95,10186.51 15684.08,10196.86 15662.84,10201.20 15687.07,10318.47 15707.51,10314.29 15710.62,10329.33 15670.07,10337.63 15672.02,10347.07 15663.84,10348.74 15668.09,10369.27 15650.48,10372.87 15646.27,10352.55 15620.16,10357.91 15624.19,10377.36 15606.62,10380.96 15601.65,10356.98 15595.61,10358.23 15588.22,10322.59 15575.98,10325.10 15574.00,10315.52 15567.17,10316.92 15565.86,10310.56 15572.18,10309.27 15561.19,10256.23 15553.70,10257.76 15552.09,10249.99 15557.35,10248.91 15553.39,10229.78 15567.37,10226.93 15564.00,10210.62"/>
    <poly id="176994706#1" type="shop" color="255,153,26" fill="1" layer="-1.00" shape="15564.00,10210.62 15681.95,10186.51 15684.08,10196.86 15662.84,10201.20 15687.07,10318.47 15707.51,10314.29 15710.62,10329.33 15670.07,10337.63 15672.02,10347.07 15663.84,10348.74 15668.09,10369.27 15650.48,10372.87 15646.27,10352.55 15620.16,10357.91 15624.19,10377.36 15606.62,10380.96 15601.65,10356.98 15595.61,10358.23 15588.22,10322.59 15575.98,10325.10 15574.00,10315.52 15567.17,10316.92 15565.86,10310.56 15572.18,10309.27 15561.19,10256.23 15553.70,10257.76 15552.09,10249.99 15557.35,10248.91 15553.39,10229.78 15567.37,10226.93 15564.00,10210.62"/>
    <poly id="176994707" type="parking" color="184,184,179" fill="1" layer="-1.00" shape="16382.04,7634.17 16422.53,7635.90 16423.37,7731.20 16417.58,7730.70 16418.13,7734.63 16419.99,7736.98 16415.28,7744.08 16415.31,7750.37 16399.24,7750.72 16391.58,7747.87 16385.77,7744.75 16382.84,7738.74 16380.17,7732.21 16380.62,7712.14 16382.04,7634.17"/>
    <poly id="176994708" type="building" color="yellow" fill="1" layer="-1.00" shape="15212.08,9658.05 15212.10,9647.27 15223.86,9647.29 15223.89,9629.60 15230.48,9629.61 15273.04,9629.71 15272.97,9658.18 15212.08,9658.05"/>
    <poly id="176994709" type="parking" color="184,184,179" fill="1" layer="-1.00" shape="15189.65,9595.83 15189.65,9659.05 15206.76,9658.83 15206.91,9623.75 15230.44,9623.54 15230.65,9628.17 15275.06,9627.81 15275.78,9657.96 15294.32,9658.21 15293.56,9632.97 15290.22,9632.19 15290.79,9613.15 15290.11,9595.68 15189.65,9595.83"/>
    <poly id="176994710" type="building" color="yellow" fill="1" layer="-1.00" shape="16402.88,7756.63 16425.42,7756.80 16425.19,7788.01 16402.93,7787.85 16402.98,7781.48 16396.71,7781.43 16396.84,7764.81 16402.82,7764.86 16402.88,7756.63"/>
    <poly id="176994711" type="leisure" color="77,255,77" fill="1" layer="-2.00" shape="16499.38,7740.30 16509.92,7740.38 16509.76,7762.00 16499.22,7761.93 16499.38,7740.30"/>
    <poly id="176994711#1" type="sport" color="79,230,125" fill="1" layer="-2.00" shape="16499.38,7740.30 16509.92,7740.38 16509.76,7762.00 16499.22,7761.93 16499.38,7740.30"/>
    <poly id="176994712" type="building" color="yellow" fill="1" layer="-1.00" shape="15256.51,10239.47 15279.78,10239.39 15279.94,10289.64 15256.67,10289.71 15256.51,10239.47"/>