<?xml version="1.0" encoding="UTF-8"?>

<!-- generated on 01/23/19 21:45:16 by Eclipse SUMO netedit Version v1_0_1+0383-8ba62d898b
<configuration xmlns:xsi="http://www.w3.org/2001/XMLSchema-instance" xsi:noNamespaceSchemaLocation="http://sumo.dlr.de/xsd/netconvertConfiguration.xsd">

    <input>
        <sumo-net-file value=".\blank.net.xml"/>
    </input>

    <output>
        <output-file value=".\blank.net.xml"/>
    </output>

    <processing>
        <offset.disable-normalization value="true"/>
        <lefthand value="false"/>
    </processing>

    <junctions>
        <no-internal-links value="true"/>
        <no-turnarounds value="true"/>
        <junctions.corner-detail value="5"/>
        <junctions.limit-turn-speed value="5.5"/>
        <rectangular-lane-cut value="false"/>
    </junctions>

    <pedestrian>
        <walkingareas value="false"/>
    </pedestrian>

</configuration>
-->

<net version="1.0" junctionCornerDetail="5" limitTurnSpeed="5.50" xmlns:xsi="http://www.w3.org/2001/XMLSchema-instance" xsi:noNamespaceSchemaLocation="http://sumo.dlr.de/xsd/net_file.xsd">

    <location netOffset="0.00,0.00" convBoundary="20.24,43.53,54.59,48.82" origBoundary="-10000000000.00,-10000000000.00,10000000000.00,10000000000.00" projParameter="!"/>

    <edge id="gneE1" from="gneJ2" to="gneJ3" priority="-1">
        <lane id="gneE1_0" index="0" speed="13.89" length="34.75" shape="20.48,41.95 54.83,47.24"/>
    </edge>

    <junction id="gneJ2" type="dead_end" x="20.24" y="43.53" incLanes="" intLanes="" shape="20.24,43.53 20.73,40.37"/>
    <junction id="gneJ3" type="dead_end" x="54.59" y="48.82" incLanes="gneE1_0" intLanes="" shape="55.08,45.66 54.59,48.82"/>

</net>
