<!-- 
	This file is empty and is rewritten every time a simulation is run.
-->
<routes>
</routes>