<?xml version="1.0" encoding="UTF-8"?>

<!-- generated on Sat 15 Sep 2018 04:13:14 AM UTC by Netedit Version 0.30.0
<?xml version="1.0" encoding="UTF-8"?>

<configuration xmlns:xsi="http://www.w3.org/2001/XMLSchema-instance" xsi:noNamespaceSchemaLocation="http://sumo.dlr.de/xsd/netconvertConfiguration.xsd">

    <input>
        <sumo-net-file value="leopard.net.xml"/>
    </input>

    <output>
        <output-file value="leopard.net.xml"/>
    </output>

    <processing>
        <no-turnarounds value="true"/>
        <offset.disable-normalization value="true"/>
        <lefthand value="false"/>
        <junctions.corner-detail value="0"/>
        <rectangular-lane-cut value="false"/>
    </processing>

</configuration>
-->

<net version="0.27" xmlns:xsi="http://www.w3.org/2001/XMLSchema-instance" xsi:noNamespaceSchemaLocation="http://sumo.dlr.de/xsd/net_file.xsd">

    <location netOffset="0.00,0.00" convBoundary="-1238.59,-174.44,243.65,194.55" origBoundary="-10000000000.00,-10000000000.00,10000000000.00,10000000000.00" projParameter="!"/>

    <edge id=":gneJ10_0" function="internal">
        <lane id=":gneJ10_0_0" index="0" speed="13.89" length="5.79" shape="90.20,111.31 88.75,111.37 87.74,111.47 86.81,111.81 85.59,112.55"/>
        <lane id=":gneJ10_0_1" index="1" speed="13.89" length="5.79" shape="90.04,108.02 88.06,108.11 86.68,108.29 85.41,108.78 83.74,109.82"/>
    </edge>
    <edge id=":gneJ10_2" function="internal">
        <lane id=":gneJ10_2_0" index="0" speed="13.89" length="4.16" shape="90.04,108.02 87.38,107.56 86.25,106.63"/>
    </edge>
    <edge id=":gneJ10_8" function="internal">
        <lane id=":gneJ10_8_0" index="0" speed="13.89" length="8.55" shape="86.25,106.63 85.34,105.89 83.92,103.01 83.11,98.92"/>
    </edge>
    <edge id=":gneJ10_3" function="internal">
        <lane id=":gneJ10_3_0" index="0" speed="13.89" length="4.93" shape="86.40,98.57 86.72,99.88 87.38,100.78 88.38,101.30 89.72,101.42"/>
    </edge>
    <edge id=":gneJ10_4" function="internal">
        <lane id=":gneJ10_4_0" index="0" speed="13.89" length="12.05" shape="86.40,98.57 86.58,102.58 86.20,105.79 85.25,108.21 83.74,109.82"/>
    </edge>
    <edge id=":gneJ10_5" function="internal">
        <lane id=":gneJ10_5_0" index="0" speed="13.89" length="6.57" shape="80.04,104.36 81.51,103.15 82.51,101.84 83.05,100.43 83.11,98.92"/>
    </edge>
    <edge id=":gneJ10_6" function="internal">
        <lane id=":gneJ10_6_0" index="0" speed="13.89" length="9.43" shape="80.04,104.36 82.61,102.74 84.55,101.92 86.66,101.59 89.72,101.42"/>
        <lane id=":gneJ10_6_1" index="1" speed="13.89" length="9.43" shape="81.89,107.09 84.01,105.76 85.62,105.10 87.36,104.85 89.88,104.72"/>
    </edge>
    <edge id=":gneJ100_0" function="internal">
        <lane id=":gneJ100_0_0" index="0" speed="13.89" length="17.38" shape="-251.78,-9.63 -255.27,-9.05 -258.66,-7.58 -262.57,-5.43 -267.61,-2.78"/>
    </edge>
    <edge id=":gneJ100_1" function="internal">
        <lane id=":gneJ100_1_0" index="0" speed="13.89" length="18.89" shape="-251.78,-9.63 -256.93,-10.04 -261.33,-11.52 -265.00,-14.05 -267.92,-17.64"/>
    </edge>
    <edge id=":gneJ100_2" function="internal">
        <lane id=":gneJ100_2_0" index="0" speed="13.89" length="13.76" shape="-262.32,-21.12 -260.49,-18.92 -258.15,-17.38 -255.29,-16.48 -251.92,-16.23"/>
        <lane id=":gneJ100_2_1" index="1" speed="13.89" length="13.76" shape="-265.12,-19.38 -262.74,-16.49 -259.74,-14.45 -256.11,-13.26 -251.85,-12.93"/>
    </edge>
    <edge id=":gneJ100_4" function="internal">
        <lane id=":gneJ100_4_0" index="0" speed="13.89" length="16.58" shape="-265.12,-19.38 -263.27,-15.16 -263.31,-11.48 -265.24,-8.34 -269.05,-5.75"/>
    </edge>
    <edge id=":gneJ100_5" function="internal">
        <lane id=":gneJ100_5_0" index="0" speed="13.89" length="5.13" shape="-271.94,-11.68 -270.76,-12.49 -270.17,-13.45 -270.15,-14.59 -270.73,-15.90"/>
    </edge>
    <edge id=":gneJ100_6" function="internal">
        <lane id=":gneJ100_6_0" index="0" speed="13.89" length="20.10" shape="-271.94,-11.68 -266.43,-14.21 -262.31,-15.52 -258.00,-16.05 -251.92,-16.23"/>
        <lane id=":gneJ100_6_1" index="1" speed="13.89" length="20.10" shape="-270.50,-8.72 -265.30,-11.11 -261.54,-12.32 -257.59,-12.77 -251.85,-12.93"/>
    </edge>
    <edge id=":gneJ101_0" function="internal">
        <lane id=":gneJ101_0_0" index="0" speed="13.89" length="14.46" shape="-289.44,9.86 -290.65,7.46 -293.14,6.00 -296.92,5.47 -301.97,5.87"/>
    </edge>
    <edge id=":gneJ101_1" function="internal">
        <lane id=":gneJ101_1_0" index="0" speed="13.89" length="11.44" shape="-289.44,9.86 -289.94,6.01 -289.72,2.98 -288.80,0.78 -287.17,-0.60"/>
    </edge>
    <edge id=":gneJ101_2" function="internal">
        <lane id=":gneJ101_2_0" index="0" speed="13.89" length="4.71" shape="-284.28,5.34 -285.32,6.03 -285.99,6.90 -286.29,7.97 -286.21,9.21"/>
    </edge>
    <edge id=":gneJ101_3" function="internal">
        <lane id=":gneJ101_3_0" index="0" speed="13.89" length="16.74" shape="-285.73,2.37 -290.72,4.34 -294.80,5.20 -298.40,5.52 -301.97,5.87"/>
    </edge>
    <edge id=":gneJ101_4" function="internal">
        <lane id=":gneJ101_4_0" index="0" speed="13.89" length="15.24" shape="-302.47,2.61 -299.18,1.79 -296.25,0.48 -292.96,-1.31 -288.62,-3.56"/>
    </edge>
    <edge id=":gneJ101_5" function="internal">
        <lane id=":gneJ101_5_0" index="0" speed="13.89" length="10.55" shape="-302.47,2.61 -296.01,2.19 -292.01,2.98"/>
    </edge>
    <edge id=":gneJ101_6" function="internal">
        <lane id=":gneJ101_6_0" index="0" speed="13.89" length="8.98" shape="-292.01,2.98 -291.15,3.15 -287.88,5.49 -286.21,9.21"/>
    </edge>
    <edge id=":gneJ103_0" function="internal">
        <lane id=":gneJ103_0_0" index="0" speed="13.89" length="4.24" shape="-296.04,-79.77 -296.25,-81.21 -296.29,-82.22 -296.13,-83.22 -295.76,-84.64"/>
        <lane id=":gneJ103_0_1" index="1" speed="13.89" length="4.24" shape="-292.78,-80.28 -292.93,-81.31 -292.96,-82.03 -292.84,-82.74 -292.58,-83.75"/>
    </edge>
    <edge id=":gneJ103_2" function="internal">
        <lane id=":gneJ103_2_0" index="0" speed="13.89" length="1.40" shape="-286.22,-81.98 -286.27,-81.79 -286.29,-81.65 -286.29,-81.51 -286.26,-81.31"/>
        <lane id=":gneJ103_2_1" index="1" speed="13.89" length="1.40" shape="-289.40,-82.87 -289.56,-82.27 -289.62,-81.84 -289.61,-81.41 -289.52,-80.79"/>
    </edge>
    <edge id=":gneJ104_0" function="internal">
        <lane id=":gneJ104_0_0" index="0" speed="13.89" length="13.55" shape="-274.01,-110.19 -276.79,-107.65 -278.66,-105.78 -279.99,-103.60 -281.18,-100.10"/>
        <lane id=":gneJ104_0_1" index="1" speed="13.89" length="13.55" shape="-276.28,-112.58 -279.44,-109.67 -281.53,-107.51 -283.02,-104.99 -284.36,-100.99"/>
    </edge>
    <edge id=":gneJ104_2" function="internal">
        <lane id=":gneJ104_2_0" index="0" speed="13.89" length="8.46" shape="-276.28,-112.58 -280.14,-109.53 -283.31,-107.95"/>
    </edge>
    <edge id=":gneJ104_3" function="internal">
        <lane id=":gneJ104_3_0" index="0" speed="13.89" length="6.46" shape="-276.28,-112.58 -280.44,-109.67 -281.82,-109.65"/>
    </edge>
    <edge id=":gneJ104_14" function="internal">
        <lane id=":gneJ104_14_0" index="0" speed="13.89" length="10.14" shape="-283.31,-107.95 -284.25,-107.47 -288.60,-106.42 -293.20,-106.36"/>
    </edge>
    <edge id=":gneJ104_15" function="internal">
        <lane id=":gneJ104_15_0" index="0" speed="13.89" length="11.67" shape="-281.82,-109.65 -283.80,-109.61 -286.36,-112.40 -288.11,-118.04"/>
    </edge>
    <edge id=":gneJ104_4" function="internal">
        <lane id=":gneJ104_4_0" index="0" speed="13.89" length="5.94" shape="-284.87,-118.66 -284.31,-116.95 -283.44,-116.17 -282.28,-116.30 -280.83,-117.37"/>
    </edge>
    <edge id=":gneJ104_5" function="internal">
        <lane id=":gneJ104_5_0" index="0" speed="13.89" length="17.92" shape="-284.87,-118.66 -284.06,-115.03 -283.38,-111.18 -283.31,-106.65 -284.36,-100.99"/>
    </edge>
    <edge id=":gneJ104_6" function="internal">
        <lane id=":gneJ104_6_0" index="0" speed="13.89" length="18.21" shape="-284.87,-118.66 -284.43,-112.90 -285.68,-108.93 -288.60,-106.75 -293.20,-106.36"/>
    </edge>
    <edge id=":gneJ104_7" function="internal">
        <lane id=":gneJ104_7_0" index="0" speed="13.89" length="11.73" shape="-292.90,-109.65 -290.16,-109.94 -288.44,-111.44 -287.76,-114.14 -288.11,-118.04"/>
    </edge>
    <edge id=":gneJ104_8" function="internal">
        <lane id=":gneJ104_8_0" index="0" speed="13.89" length="15.78" shape="-292.90,-109.65 -289.02,-109.70 -285.33,-110.61 -281.85,-112.36 -278.55,-114.97"/>
    </edge>
    <edge id=":gneJ104_9" function="internal">
        <lane id=":gneJ104_9_0" index="0" speed="13.89" length="14.37" shape="-292.90,-109.65 -288.36,-108.73 -285.43,-106.98 -284.10,-104.40 -284.36,-100.99"/>
    </edge>
    <edge id=":gneJ104_10" function="internal">
        <lane id=":gneJ104_10_0" index="0" speed="13.89" length="5.23" shape="-290.72,-102.76 -290.53,-104.21 -290.88,-105.30 -291.77,-106.02 -293.20,-106.36"/>
    </edge>
    <edge id=":gneJ104_11" function="internal">
        <lane id=":gneJ104_11_0" index="0" speed="13.89" length="15.67" shape="-290.72,-102.76 -289.30,-107.61 -288.28,-111.36 -287.83,-114.63 -288.11,-118.04"/>
    </edge>
    <edge id=":gneJ104_12" function="internal">
        <lane id=":gneJ104_12_0" index="0" speed="13.89" length="17.14" shape="-290.72,-102.76 -289.08,-107.77 -287.29,-110.97 -284.74,-113.71 -280.83,-117.37"/>
        <lane id=":gneJ104_12_1" index="1" speed="13.89" length="17.14" shape="-287.54,-101.87 -286.05,-106.38 -284.41,-109.24 -282.09,-111.69 -278.55,-114.97"/>
    </edge>
    <edge id=":gneJ106_0" function="internal">
        <lane id=":gneJ106_0_0" index="0" speed="13.89" length="9.30" shape="-137.99,-28.12 -141.15,-29.20 -143.59,-29.47 -145.33,-28.94 -146.36,-27.61"/>
    </edge>
    <edge id=":gneJ106_1" function="internal">
        <lane id=":gneJ106_1_0" index="0" speed="13.89" length="14.66" shape="-137.99,-28.12 -141.90,-29.80 -144.61,-30.90 -147.39,-31.74 -151.54,-32.65"/>
        <lane id=":gneJ106_1_1" index="1" speed="13.89" length="14.66" shape="-136.71,-31.17 -140.80,-32.92 -143.63,-34.06 -146.55,-34.93 -150.88,-35.89"/>
    </edge>
    <edge id=":gneJ106_3" function="internal">
        <lane id=":gneJ106_3_0" index="0" speed="13.89" length="6.71" shape="-136.71,-31.17 -140.91,-33.69 -141.91,-35.20"/>
    </edge>
    <edge id=":gneJ106_14" function="internal">
        <lane id=":gneJ106_14_0" index="0" speed="13.89" length="10.68" shape="-141.91,-35.20 -143.01,-36.85 -143.02,-40.65 -140.93,-45.08"/>
    </edge>
    <edge id=":gneJ106_4" function="internal">
        <lane id=":gneJ106_4_0" index="0" speed="13.89" length="5.24" shape="-135.42,-41.44 -136.05,-40.11 -136.05,-38.96 -135.42,-38.01 -134.15,-37.25"/>
    </edge>
    <edge id=":gneJ106_5" function="internal">
        <lane id=":gneJ106_5_0" index="0" speed="13.89" length="17.70" shape="-135.42,-41.44 -138.93,-36.83 -142.03,-33.51 -144.57,-30.70 -146.36,-27.61"/>
    </edge>
    <edge id=":gneJ106_6" function="internal">
        <lane id=":gneJ106_6_0" index="0" speed="13.89" length="15.61" shape="-138.18,-43.26 -141.14,-39.51 -144.25,-37.03 -147.49,-35.83 -150.88,-35.89"/>
    </edge>
    <edge id=":gneJ106_7" function="internal">
        <lane id=":gneJ106_7_0" index="0" speed="13.89" length="7.80" shape="-149.58,-42.36 -148.25,-42.45 -146.83,-43.23 -145.30,-44.72 -143.68,-46.90"/>
    </edge>
    <edge id=":gneJ106_8" function="internal">
        <lane id=":gneJ106_8_0" index="0" speed="13.89" length="15.97" shape="-149.58,-42.36 -144.86,-41.32 -141.69,-40.38 -138.60,-39.15 -134.15,-37.25"/>
        <lane id=":gneJ106_8_1" index="1" speed="13.89" length="15.97" shape="-150.23,-39.12 -145.70,-38.13 -142.66,-37.22 -139.70,-36.03 -135.43,-34.21"/>
    </edge>
    <edge id=":gneJ106_10" function="internal">
        <lane id=":gneJ106_10_0" index="0" speed="13.89" length="5.06" shape="-150.23,-39.12 -147.08,-37.82 -146.12,-36.48"/>
    </edge>
    <edge id=":gneJ106_15" function="internal">
        <lane id=":gneJ106_15_0" index="0" speed="13.89" length="9.27" shape="-146.12,-36.48 -145.39,-35.46 -145.15,-32.06 -146.36,-27.61"/>
    </edge>
    <edge id=":gneJ106_11" function="internal">
        <lane id=":gneJ106_11_0" index="0" speed="13.89" length="5.22" shape="-149.44,-28.81 -149.10,-30.24 -149.34,-31.36 -150.15,-32.16 -151.54,-32.65"/>
    </edge>
    <edge id=":gneJ106_12" function="internal">
        <lane id=":gneJ106_12_0" index="0" speed="13.89" length="18.40" shape="-149.44,-28.81 -148.05,-32.24 -146.40,-35.82 -144.14,-39.96 -140.93,-45.08"/>
    </edge>
    <edge id=":gneJ106_13" function="internal">
        <lane id=":gneJ106_13_0" index="0" speed="13.89" length="17.21" shape="-149.44,-28.81 -147.14,-32.78 -144.04,-35.01 -140.14,-35.48 -135.43,-34.21"/>
    </edge>
    <edge id=":gneJ107_0" function="internal">
        <lane id=":gneJ107_0_0" index="0" speed="13.89" length="5.70" shape="-220.95,-46.66 -222.34,-46.69 -223.43,-46.15 -224.23,-45.05 -224.75,-43.39"/>
    </edge>
    <edge id=":gneJ107_1" function="internal">
        <lane id=":gneJ107_1_0" index="0" speed="13.89" length="10.32" shape="-220.95,-46.66 -223.85,-47.20 -225.86,-47.42 -227.88,-47.43 -230.83,-47.33"/>
        <lane id=":gneJ107_1_1" index="1" speed="13.89" length="10.32" shape="-220.30,-49.90 -223.42,-50.48 -225.58,-50.72 -227.76,-50.73 -230.93,-50.63"/>
    </edge>
    <edge id=":gneJ107_3" function="internal">
        <lane id=":gneJ107_3_0" index="0" speed="13.89" length="11.84" shape="-231.14,-57.22 -227.51,-57.34 -225.02,-57.32 -222.55,-57.03 -218.99,-56.37"/>
        <lane id=":gneJ107_3_1" index="1" speed="13.89" length="11.84" shape="-231.03,-53.93 -227.64,-54.03 -225.30,-54.02 -222.98,-53.76 -219.65,-53.13"/>
    </edge>
    <edge id=":gneJ107_5" function="internal">
        <lane id=":gneJ107_5_0" index="0" speed="13.89" length="5.14" shape="-231.03,-53.93 -227.52,-53.36 -226.33,-52.32"/>
    </edge>
    <edge id=":gneJ107_8" function="internal">
        <lane id=":gneJ107_8_0" index="0" speed="13.89" length="9.54" shape="-226.33,-52.32 -225.30,-51.42 -224.37,-48.10 -224.75,-43.39"/>
    </edge>
    <edge id=":gneJ107_6" function="internal">
        <lane id=":gneJ107_6_0" index="0" speed="13.89" length="5.28" shape="-227.99,-44.00 -227.92,-45.50 -228.37,-46.55 -229.34,-47.16 -230.83,-47.33"/>
    </edge>
    <edge id=":gneJ107_7" function="internal">
        <lane id=":gneJ107_7_0" index="0" speed="13.89" length="13.90" shape="-227.99,-44.00 -226.73,-48.48 -224.92,-51.49 -222.56,-53.04 -219.65,-53.13"/>
    </edge>
    <edge id=":gneJ109_0" function="internal">
        <lane id=":gneJ109_0_0" index="0" speed="13.89" length="18.83" shape="-283.85,-37.02 -287.64,-42.74 -290.96,-46.94 -293.83,-49.63 -296.24,-50.82"/>
    </edge>
    <edge id=":gneJ109_1" function="internal">
        <lane id=":gneJ109_1_0" index="0" speed="13.89" length="21.41" shape="-283.85,-37.02 -287.20,-42.35 -289.55,-46.53 -291.20,-50.96 -292.47,-57.07"/>
        <lane id=":gneJ109_1_1" index="1" speed="13.89" length="21.41" shape="-281.04,-38.76 -284.33,-43.90 -286.52,-47.65 -288.02,-51.67 -289.21,-57.58"/>
    </edge>
    <edge id=":gneJ109_3" function="internal">
        <lane id=":gneJ109_3_0" index="0" speed="13.89" length="7.75" shape="-281.04,-38.76 -283.69,-44.64 -283.58,-45.94"/>
    </edge>
    <edge id=":gneJ109_14" function="internal">
        <lane id=":gneJ109_14_0" index="0" speed="13.89" length="13.70" shape="-283.58,-45.94 -283.34,-48.90 -279.98,-51.56 -273.63,-52.61"/>
    </edge>
    <edge id=":gneJ109_4" function="internal">
        <lane id=":gneJ109_4_0" index="0" speed="13.89" length="5.83" shape="-273.42,-46.01 -275.15,-45.73 -276.06,-45.00 -276.16,-43.84 -275.44,-42.25"/>
    </edge>
    <edge id=":gneJ109_5" function="internal">
        <lane id=":gneJ109_5_0" index="0" speed="13.89" length="23.43" shape="-273.42,-46.01 -280.51,-46.49 -286.74,-47.93 -292.01,-49.62 -296.24,-50.82"/>
    </edge>
    <edge id=":gneJ109_6" function="internal">
        <lane id=":gneJ109_6_0" index="0" speed="13.89" length="19.47" shape="-273.52,-49.31 -279.87,-49.66 -284.60,-51.15 -287.71,-53.79 -289.21,-57.58"/>
    </edge>
    <edge id=":gneJ109_7" function="internal">
        <lane id=":gneJ109_7_0" index="0" speed="13.89" length="9.95" shape="-282.69,-58.61 -281.95,-57.33 -280.21,-56.45 -277.47,-55.98 -273.73,-55.91"/>
    </edge>
    <edge id=":gneJ109_8" function="internal">
        <lane id=":gneJ109_8_0" index="0" speed="13.89" length="18.78" shape="-282.69,-58.61 -281.63,-53.39 -280.31,-49.96 -278.37,-46.77 -275.44,-42.25"/>
        <lane id=":gneJ109_8_1" index="1" speed="13.89" length="18.78" shape="-285.95,-58.09 -284.82,-52.49 -283.43,-48.80 -281.37,-45.36 -278.24,-40.50"/>
    </edge>
    <edge id=":gneJ109_10" function="internal">
        <lane id=":gneJ109_10_0" index="0" speed="13.89" length="5.21" shape="-285.95,-58.09 -286.02,-54.03 -286.67,-53.08"/>
    </edge>
    <edge id=":gneJ109_15" function="internal">
        <lane id=":gneJ109_15_0" index="0" speed="13.89" length="10.60" shape="-286.67,-53.08 -287.76,-51.47 -291.17,-50.40 -296.24,-50.82"/>
    </edge>
    <edge id=":gneJ109_11" function="internal">
        <lane id=":gneJ109_11_0" index="0" speed="13.89" length="5.49" shape="-295.59,-54.06 -294.00,-53.97 -292.95,-54.44 -292.44,-55.47 -292.47,-57.07"/>
    </edge>
    <edge id=":gneJ109_12" function="internal">
        <lane id=":gneJ109_12_0" index="0" speed="13.89" length="22.06" shape="-295.59,-54.06 -291.50,-53.38 -286.52,-52.85 -280.58,-52.57 -273.63,-52.61"/>
    </edge>
    <edge id=":gneJ109_13" function="internal">
        <lane id=":gneJ109_13_0" index="0" speed="13.89" length="22.63" shape="-295.59,-54.06 -290.69,-52.45 -286.16,-49.66 -282.01,-45.68 -278.24,-40.50"/>
    </edge>
    <edge id=":gneJ11_0" function="internal">
        <lane id=":gneJ11_0_0" index="0" speed="13.89" length="8.93" shape="135.55,104.71 133.79,106.73 131.73,108.20 129.37,109.14 126.72,109.55"/>
        <lane id=":gneJ11_0_1" index="1" speed="13.89" length="8.93" shape="132.86,102.80 131.60,104.24 130.13,105.29 128.45,105.96 126.56,106.25"/>
    </edge>
    <edge id=":gneJ11_2" function="internal">
        <lane id=":gneJ11_2_0" index="0" speed="13.89" length="2.95" shape="126.25,99.66 126.61,99.60 126.94,99.47 127.23,99.27 127.47,98.99"/>
        <lane id=":gneJ11_2_1" index="1" speed="13.89" length="2.95" shape="126.41,102.96 127.53,102.78 128.54,102.38 129.41,101.75 130.17,100.89"/>
    </edge>
    <edge id=":gneJ110_0" function="internal">
        <lane id=":gneJ110_0_0" index="0" speed="13.89" length="11.04" shape="-7.23,-12.83 -8.58,-15.48 -9.48,-17.46 -10.77,-18.95 -13.27,-20.14"/>
        <lane id=":gneJ110_0_1" index="1" speed="13.89" length="11.04" shape="-4.41,-14.55 -6.13,-17.77 -7.38,-20.11 -9.09,-21.85 -12.24,-23.28"/>
    </edge>
    <edge id=":gneJ110_2" function="internal">
        <lane id=":gneJ110_2_0" index="0" speed="13.89" length="17.67" shape="-4.41,-14.55 -6.37,-19.15 -6.20,-22.98 -3.89,-26.04 0.56,-28.33"/>
    </edge>
    <edge id=":gneJ110_3" function="internal">
        <lane id=":gneJ110_3_0" index="0" speed="13.89" length="5.28" shape="2.71,-22.10 1.39,-21.41 0.70,-20.50 0.64,-19.35 1.23,-17.98"/>
    </edge>
    <edge id=":gneJ110_4" function="internal">
        <lane id=":gneJ110_4_0" index="0" speed="13.89" length="15.55" shape="2.71,-22.10 -1.92,-20.33 -5.26,-19.20 -8.61,-19.02 -13.27,-20.14"/>
        <lane id=":gneJ110_4_1" index="1" speed="13.89" length="15.55" shape="1.64,-25.21 -2.39,-23.64 -5.29,-22.57 -8.19,-22.34 -12.24,-23.28"/>
    </edge>
    <edge id=":gneJ110_6" function="internal">
        <lane id=":gneJ110_6_0" index="0" speed="13.89" length="11.27" shape="-10.19,-29.55 -7.36,-28.98 -5.35,-29.33 -3.34,-30.26 -0.52,-31.45"/>
        <lane id=":gneJ110_6_1" index="1" speed="13.89" length="11.27" shape="-11.22,-26.42 -7.78,-25.66 -5.32,-25.95 -2.86,-26.95 0.56,-28.33"/>
    </edge>
    <edge id=":gneJ110_8" function="internal">
        <lane id=":gneJ110_8_0" index="0" speed="13.89" length="14.54" shape="-11.22,-26.42 -7.42,-24.75 -5.27,-22.77 -3.69,-20.07 -1.59,-16.27"/>
    </edge>
    <edge id=":gneJ111_0" function="internal">
        <lane id=":gneJ111_0_0" index="0" speed="13.89" length="4.49" shape="-27.53,-24.80 -29.36,-28.91"/>
    </edge>
    <edge id=":gneJ111_1" function="internal">
        <lane id=":gneJ111_1_0" index="0" speed="13.89" length="3.67" shape="-28.27,-32.02 -24.46,-34.21"/>
        <lane id=":gneJ111_1_1" index="1" speed="13.89" length="3.67" shape="-28.27,-32.02 -25.48,-31.08"/>
    </edge>
    <edge id=":gneJ113_0" function="internal">
        <lane id=":gneJ113_0_0" index="0" speed="13.89" length="5.73" shape="-113.30,-68.28 -114.32,-69.64 -115.38,-70.12 -116.47,-69.72 -117.59,-68.43"/>
    </edge>
    <edge id=":gneJ113_1" function="internal">
        <lane id=":gneJ113_1_0" index="0" speed="13.89" length="16.20" shape="-113.30,-68.28 -115.48,-73.26 -115.80,-77.13 -114.28,-79.87 -110.90,-81.48"/>
    </edge>
    <edge id=":gneJ113_2" function="internal">
        <lane id=":gneJ113_2_0" index="0" speed="13.89" length="6.41" shape="-109.34,-75.07 -110.72,-74.42 -111.36,-73.34 -111.26,-71.83 -110.42,-69.89"/>
    </edge>
    <edge id=":gneJ113_3" function="internal">
        <lane id=":gneJ113_3_0" index="0" speed="13.89" length="12.28" shape="-109.34,-75.07 -112.38,-74.12 -114.30,-72.94 -115.79,-71.16 -117.59,-68.43"/>
        <lane id=":gneJ113_3_1" index="1" speed="13.89" length="12.28" shape="-110.12,-78.27 -113.87,-77.13 -116.25,-75.72 -118.12,-73.58 -120.34,-70.25"/>
    </edge>
    <edge id=":gneJ113_5" function="internal">
        <lane id=":gneJ113_5_0" index="0" speed="13.89" length="17.29" shape="-125.85,-73.89 -122.78,-78.42 -120.17,-81.28 -116.85,-83.15 -111.68,-84.68"/>
        <lane id=":gneJ113_5_1" index="1" speed="13.89" length="17.29" shape="-123.10,-72.07 -120.45,-76.00 -118.21,-78.50 -115.36,-80.14 -110.90,-81.48"/>
    </edge>
    <edge id=":gneJ113_7" function="internal">
        <lane id=":gneJ113_7_0" index="0" speed="13.89" length="6.39" shape="-123.10,-72.07 -119.98,-75.46 -118.24,-75.88"/>
    </edge>
    <edge id=":gneJ113_8" function="internal">
        <lane id=":gneJ113_8_0" index="0" speed="13.89" length="10.66" shape="-118.24,-75.88 -116.82,-76.22 -113.64,-74.36 -110.42,-69.89"/>
    </edge>
    <edge id=":gneJ114_0" function="internal">
        <lane id=":gneJ114_0_0" index="0" speed="13.89" length="6.12" shape="105.08,-54.84 103.54,-55.04 102.47,-54.96 101.41,-54.64 99.92,-54.13"/>
        <lane id=":gneJ114_0_1" index="1" speed="13.89" length="6.12" shape="105.67,-58.08 103.66,-58.36 102.26,-58.30 100.87,-57.92 98.92,-57.28"/>
    </edge>
    <edge id=":gneJ114_2" function="internal">
        <lane id=":gneJ114_2_0" index="0" speed="13.89" length="3.66" shape="105.67,-58.08 103.73,-58.95 102.67,-60.05"/>
    </edge>
    <edge id=":gneJ114_8" function="internal">
        <lane id=":gneJ114_8_0" index="0" speed="13.89" length="8.35" shape="102.67,-60.05 101.96,-60.80 100.37,-63.63 98.96,-67.45"/>
    </edge>
    <edge id=":gneJ114_3" function="internal">
        <lane id=":gneJ114_3_0" index="0" speed="13.89" length="6.44" shape="102.11,-68.42 102.77,-67.00 103.78,-65.88 105.15,-65.08 106.86,-64.58"/>
    </edge>
    <edge id=":gneJ114_4" function="internal">
        <lane id=":gneJ114_4_0" index="0" speed="13.89" length="13.03" shape="102.11,-68.42 102.98,-64.26 102.73,-61.02 101.38,-58.69 98.92,-57.28"/>
    </edge>
    <edge id=":gneJ114_5" function="internal">
        <lane id=":gneJ114_5_0" index="0" speed="13.89" length="4.99" shape="96.92,-63.57 98.15,-64.16 98.90,-65.01 99.17,-66.10 98.96,-67.45"/>
    </edge>
    <edge id=":gneJ114_6" function="internal">
        <lane id=":gneJ114_6_0" index="0" speed="13.89" length="9.36" shape="96.92,-63.57 99.79,-64.49 101.83,-64.98 103.90,-65.01 106.86,-64.58"/>
        <lane id=":gneJ114_6_1" index="1" speed="13.89" length="9.36" shape="97.92,-60.43 100.33,-61.21 102.05,-61.64 103.78,-61.69 106.27,-61.33"/>
    </edge>
    <edge id=":gneJ115_0" function="internal">
        <lane id=":gneJ115_0_0" index="0" speed="13.89" length="5.29" shape="-1.90,-98.25 -2.15,-99.73 -2.82,-100.66 -3.90,-101.05 -5.39,-100.89"/>
    </edge>
    <edge id=":gneJ115_1" function="internal">
        <lane id=":gneJ115_1_0" index="0" speed="13.89" length="13.95" shape="-1.90,-98.25 -1.62,-102.90 -0.48,-106.23 1.51,-108.24 4.37,-108.93"/>
    </edge>
    <edge id=":gneJ115_2" function="internal">
        <lane id=":gneJ115_2_0" index="0" speed="13.89" length="5.71" shape="4.42,-102.33 3.06,-102.07 2.10,-101.32 1.55,-100.08 1.40,-98.34"/>
    </edge>
    <edge id=":gneJ115_3" function="internal">
        <lane id=":gneJ115_3_0" index="0" speed="13.89" length="10.36" shape="4.42,-102.33 1.47,-102.26 -0.54,-102.05 -2.53,-101.62 -5.39,-100.89"/>
        <lane id=":gneJ115_3_1" index="1" speed="13.89" length="10.36" shape="4.39,-105.63 1.21,-105.56 -0.97,-105.34 -3.11,-104.88 -6.20,-104.08"/>
    </edge>
    <edge id=":gneJ115_5" function="internal">
        <lane id=":gneJ115_5_0" index="0" speed="13.89" length="11.96" shape="-7.83,-110.48 -4.28,-111.39 -1.82,-111.91 0.68,-112.15 4.34,-112.23"/>
        <lane id=":gneJ115_5_1" index="1" speed="13.89" length="11.96" shape="-7.02,-107.28 -3.70,-108.13 -1.39,-108.62 0.94,-108.85 4.37,-108.93"/>
    </edge>
    <edge id=":gneJ115_7" function="internal">
        <lane id=":gneJ115_7_0" index="0" speed="13.89" length="5.16" shape="-7.02,-107.28 -3.45,-107.50 -2.06,-106.74"/>
    </edge>
    <edge id=":gneJ115_8" function="internal">
        <lane id=":gneJ115_8_0" index="0" speed="13.89" length="9.55" shape="-2.06,-106.74 -0.86,-106.08 0.76,-103.03 1.40,-98.34"/>
    </edge>
    <edge id=":gneJ116_0" function="internal">
        <lane id=":gneJ116_0_0" index="0" speed="13.89" length="8.39" shape="75.27,-104.31 73.31,-103.27 71.73,-101.93 70.54,-100.31 69.73,-98.39"/>
    </edge>
    <edge id=":gneJ116_1" function="internal">
        <lane id=":gneJ116_1_0" index="0" speed="13.89" length="10.93" shape="75.27,-104.31 72.08,-103.16 69.77,-102.76 67.39,-102.76 63.95,-102.81"/>
        <lane id=":gneJ116_1_1" index="1" speed="13.89" length="10.93" shape="74.01,-107.36 71.17,-106.35 69.11,-106.02 66.98,-106.05 63.92,-106.11"/>
    </edge>
    <edge id=":gneJ116_3" function="internal">
        <lane id=":gneJ116_3_0" index="0" speed="13.89" length="8.39" shape="63.87,-112.71 66.18,-112.64 67.79,-112.55 69.35,-112.73 71.49,-113.45"/>
        <lane id=":gneJ116_3_1" index="1" speed="13.89" length="8.39" shape="63.90,-109.41 66.58,-109.34 68.45,-109.28 70.26,-109.54 72.75,-110.40"/>
    </edge>
    <edge id=":gneJ116_5" function="internal">
        <lane id=":gneJ116_5_0" index="0" speed="13.89" length="5.52" shape="63.90,-109.41 67.69,-108.75 68.91,-107.62"/>
    </edge>
    <edge id=":gneJ116_8" function="internal">
        <lane id=":gneJ116_8_0" index="0" speed="13.89" length="9.82" shape="68.91,-107.62 69.93,-106.69 70.61,-103.24 69.73,-98.39"/>
    </edge>
    <edge id=":gneJ116_6" function="internal">
        <lane id=":gneJ116_6_0" index="0" speed="13.89" length="5.40" shape="66.57,-99.33 66.80,-100.87 66.44,-101.96 65.49,-102.61 63.95,-102.81"/>
    </edge>
    <edge id=":gneJ116_7" function="internal">
        <lane id=":gneJ116_7_0" index="0" speed="13.89" length="12.96" shape="66.57,-99.33 68.04,-103.67 69.56,-106.96 71.13,-109.20 72.75,-110.40"/>
    </edge>
    <edge id=":gneJ117_0" function="internal">
        <lane id=":gneJ117_0_0" index="0" speed="13.89" length="6.76" shape="138.99,-51.21 136.93,-50.16 135.37,-49.68 133.74,-49.66 131.45,-50.02"/>
        <lane id=":gneJ117_0_1" index="1" speed="13.89" length="6.76" shape="137.42,-54.11 135.95,-53.37 134.84,-53.02 133.68,-53.01 132.05,-53.26"/>
    </edge>
    <edge id=":gneJ117_2" function="internal">
        <lane id=":gneJ117_2_0" index="0" speed="13.89" length="2.23" shape="133.23,-59.75 133.55,-59.70 133.78,-59.71 133.99,-59.77 134.28,-59.92"/>
        <lane id=":gneJ117_2_1" index="1" speed="13.89" length="2.23" shape="132.64,-56.51 133.62,-56.36 134.31,-56.36 134.97,-56.57 135.85,-57.02"/>
    </edge>
    <edge id=":gneJ118_0" function="internal">
        <lane id=":gneJ118_0_0" index="0" speed="13.89" length="6.31" shape="165.02,-61.99 163.34,-62.11 162.14,-62.54 161.00,-62.77 159.50,-62.30"/>
        <lane id=":gneJ118_0_1" index="1" speed="13.89" length="6.31" shape="164.70,-65.27 162.64,-65.35 161.17,-65.72 159.77,-65.85 157.93,-65.21"/>
    </edge>
    <edge id=":gneJ118_2" function="internal">
        <lane id=":gneJ118_2_0" index="0" speed="13.89" length="7.08" shape="164.70,-65.27 160.12,-65.55 158.13,-67.06"/>
    </edge>
    <edge id=":gneJ118_8" function="internal">
        <lane id=":gneJ118_8_0" index="0" speed="13.89" length="9.94" shape="158.13,-67.06 157.54,-67.52 156.96,-71.16 158.39,-76.47"/>
    </edge>
    <edge id=":gneJ118_3" function="internal">
        <lane id=":gneJ118_3_0" index="0" speed="13.89" length="5.72" shape="161.46,-75.26 161.05,-73.61 161.35,-72.49 162.35,-71.90 164.05,-71.84"/>
    </edge>
    <edge id=":gneJ118_4" function="internal">
        <lane id=":gneJ118_4_0" index="0" speed="13.89" length="11.23" shape="161.46,-75.26 160.79,-72.09 160.76,-69.44 160.20,-67.19 157.93,-65.21"/>
    </edge>
    <edge id=":gneJ118_5" function="internal">
        <lane id=":gneJ118_5_0" index="0" speed="13.89" length="6.79" shape="154.79,-71.01 156.40,-72.09 157.22,-73.18 157.72,-74.56 158.39,-76.47"/>
    </edge>
    <edge id=":gneJ118_6" function="internal">
        <lane id=":gneJ118_6_0" index="0" speed="13.89" length="8.83" shape="154.79,-71.01 157.31,-72.01 159.22,-72.08 161.22,-71.83 164.05,-71.84"/>