<configuration>
	<input>
		<net-file value="leopard.net.xml" />
		<route-files value="leopard.rou.xml" />
		<gui-settings-file value="leopard.settings.xml" />
		<!--<error-log value="errors.txt" />-->
	</input>
	<time>
		<begin value="0"/>
		<end value="10000"/>
	</time>
</configuration>
