<?xml version="1.0" encoding="UTF-8"?>

<!-- generated on Fri 14 Sep 2018 04:28:34 AM UTC by Netedit Version 0.30.0
<?xml version="1.0" encoding="UTF-8"?>

<configuration xmlns:xsi="http://www.w3.org/2001/XMLSchema-instance" xsi:noNamespaceSchemaLocation="http://sumo.dlr.de/xsd/netconvertConfiguration.xsd">

    <input>
        <sumo-net-file value="leopard.net.xml"/>
    </input>

    <output>
        <output-file value="leopard.net.xml"/>
    </output>

    <processing>
        <no-turnarounds value="true"/>
        <offset.disable-normalization value="true"/>
        <lefthand value="false"/>
        <junctions.corner-detail value="0"/>
        <rectangular-lane-cut value="false"/>
    </processing>

</configuration>
-->

<net version="0.27" xmlns:xsi="http://www.w3.org/2001/XMLSchema-instance" xsi:noNamespaceSchemaLocation="http://sumo.dlr.de/xsd/net_file.xsd">

    <location netOffset="0.00,0.00" convBoundary="-1238.59,-174.44,243.65,194.55" origBoundary="-10000000000.00,-10000000000.00,10000000000.00,10000000000.00" projParameter="!"/>

    <edge id=":gneJ10_0" function="internal">
        <lane id=":gneJ10_0_0" index="0" speed="13.89" length="0.88" shape="86.57,108.18 86.31,108.20 86.13,108.24 85.97,108.32 85.75,108.46"/>
    </edge>
    <edge id=":gneJ10_1" function="internal">
        <lane id=":gneJ10_1_0" index="0" speed="13.89" length="2.71" shape="83.90,105.73 84.57,105.29 85.07,105.05 85.62,104.94 86.41,104.89"/>
    </edge>
    <edge id=":gneJ100_0" function="internal">
        <lane id=":gneJ100_0_0" index="0" speed="13.89" length="7.81" shape="-258.68,-9.49 -260.97,-9.34 -262.50,-8.96 -263.97,-8.27 -266.03,-7.22"/>
    </edge>
    <edge id=":gneJ100_1" function="internal">
        <lane id=":gneJ100_1_0" index="0" speed="13.89" length="4.18" shape="-258.68,-9.49 -260.68,-9.76 -262.64,-10.68"/>
    </edge>
    <edge id=":gneJ100_6" function="internal">
        <lane id=":gneJ100_6_0" index="0" speed="13.89" length="5.36" shape="-262.64,-10.68 -264.56,-12.24 -266.43,-14.44"/>
    </edge>
    <edge id=":gneJ100_2" function="internal">
        <lane id=":gneJ100_2_0" index="0" speed="13.89" length="6.40" shape="-263.78,-16.40 -262.45,-14.80 -261.17,-13.66 -259.94,-12.99 -258.75,-12.79"/>
    </edge>
    <edge id=":gneJ100_3" function="internal">
        <lane id=":gneJ100_3_0" index="0" speed="13.89" length="11.29" shape="-263.78,-16.40 -262.28,-13.60 -262.15,-11.13 -263.40,-9.01 -266.03,-7.22"/>
    </edge>
    <edge id=":gneJ100_4" function="internal">
        <lane id=":gneJ100_4_0" index="0" speed="13.89" length="5.23" shape="-267.48,-10.19 -266.26,-11.02 -265.68,-12.00 -265.74,-13.14 -266.43,-14.44"/>
    </edge>
    <edge id=":gneJ100_5" function="internal">
        <lane id=":gneJ100_5_0" index="0" speed="13.89" length="9.24" shape="-267.48,-10.19 -265.03,-11.42 -263.29,-12.20 -261.46,-12.62 -258.75,-12.79"/>
    </edge>
    <edge id=":gneJ101_0" function="internal">
        <lane id=":gneJ101_0_0" index="0" speed="13.89" length="20.15" shape="-277.89,-1.44 -284.30,1.05 -287.48,0.69 -287.42,-2.50 -284.13,-8.54"/>
    </edge>
    <edge id=":gneJ101_1" function="internal">
        <lane id=":gneJ101_1_0" index="0" speed="13.89" length="6.58" shape="-281.38,-6.73 -282.45,-4.76 -282.47,-3.71 -281.43,-3.60 -279.34,-4.41"/>
    </edge>
    <edge id=":gneJ102_0" function="internal">
        <lane id=":gneJ102_0_0" index="0" speed="13.89" length="5.49" shape="-269.40,-18.46 -270.51,-19.60 -271.61,-19.96 -272.68,-19.54 -273.73,-18.34"/>
    </edge>
    <edge id=":gneJ102_1" function="internal">
        <lane id=":gneJ102_1_0" index="0" speed="13.89" length="9.84" shape="-269.40,-18.46 -271.14,-20.80 -272.32,-22.42 -273.41,-24.10 -274.87,-26.63"/>
    </edge>
    <edge id=":gneJ102_2" function="internal">
        <lane id=":gneJ102_2_0" index="0" speed="13.89" length="9.44" shape="-271.99,-28.24 -270.59,-25.82 -269.55,-24.21 -268.41,-22.66 -266.74,-20.42"/>
    </edge>
    <edge id=":gneJ102_3" function="internal">
        <lane id=":gneJ102_3_0" index="0" speed="13.89" length="4.55" shape="-271.99,-28.24 -271.28,-26.16 -271.33,-23.81"/>
    </edge>
    <edge id=":gneJ102_6" function="internal">
        <lane id=":gneJ102_6_0" index="0" speed="13.89" length="6.01" shape="-271.33,-23.81 -272.15,-21.21 -273.73,-18.34"/>
    </edge>
    <edge id=":gneJ102_4" function="internal">
        <lane id=":gneJ102_4_0" index="0" speed="13.89" length="6.96" shape="-276.49,-20.16 -275.33,-22.18 -274.67,-23.93 -274.51,-25.41 -274.87,-26.63"/>
    </edge>
    <edge id=":gneJ102_5" function="internal">
        <lane id=":gneJ102_5_0" index="0" speed="13.89" length="12.35" shape="-276.49,-20.16 -274.12,-22.85 -271.71,-23.79 -269.25,-22.98 -266.74,-20.42"/>
    </edge>
    <edge id=":gneJ103_0" function="internal">
        <lane id=":gneJ103_0_0" index="0" speed="13.89" length="2.11" shape="-292.89,-80.98 -292.98,-81.60 -293.00,-82.03 -292.93,-82.45 -292.77,-83.06"/>
    </edge>
    <edge id=":gneJ103_1" function="internal">
        <lane id=":gneJ103_1_0" index="0" speed="13.89" length="0.69" shape="-289.59,-82.17 -289.64,-81.98 -289.66,-81.84 -289.66,-81.70 -289.63,-81.50"/>
    </edge>
    <edge id=":gneJ104_0" function="internal">
        <lane id=":gneJ104_0_0" index="0" speed="13.89" length="7.37" shape="-281.06,-108.05 -282.52,-106.48 -283.25,-105.18 -283.67,-103.69 -284.21,-101.56"/>
    </edge>
    <edge id=":gneJ104_1" function="internal">
        <lane id=":gneJ104_1_0" index="0" speed="13.89" length="4.01" shape="-281.06,-108.05 -282.62,-106.96 -284.61,-106.27"/>
    </edge>
    <edge id=":gneJ104_6" function="internal">
        <lane id=":gneJ104_6_0" index="0" speed="13.89" length="5.28" shape="-284.61,-106.27 -287.03,-105.96 -289.87,-106.05"/>
    </edge>
    <edge id=":gneJ104_2" function="internal">
        <lane id=":gneJ104_2_0" index="0" speed="13.89" length="6.49" shape="-289.56,-109.34 -287.44,-109.25 -285.70,-109.40 -284.33,-109.80 -283.33,-110.44"/>
    </edge>
    <edge id=":gneJ104_3" function="internal">
        <lane id=":gneJ104_3_0" index="0" speed="13.89" length="11.27" shape="-289.56,-109.34 -286.48,-108.60 -284.56,-107.05 -283.80,-104.71 -284.21,-101.56"/>
    </edge>
    <edge id=":gneJ104_4" function="internal">
        <lane id=":gneJ104_4_0" index="0" speed="13.89" length="5.23" shape="-287.38,-102.45 -287.20,-103.91 -287.55,-104.99 -288.44,-105.71 -289.87,-106.05"/>
    </edge>
    <edge id=":gneJ104_5" function="internal">
        <lane id=":gneJ104_5_0" index="0" speed="13.89" length="9.17" shape="-287.38,-102.45 -286.70,-105.08 -286.13,-106.91 -285.17,-108.50 -283.33,-110.44"/>
    </edge>
    <edge id=":gneJ106_0" function="internal">
        <lane id=":gneJ106_0_0" index="0" speed="13.89" length="8.76" shape="-140.38,-32.71 -142.77,-33.73 -144.43,-34.39 -146.14,-34.89 -148.67,-35.44"/>
    </edge>
    <edge id=":gneJ106_1" function="internal">
        <lane id=":gneJ106_1_0" index="0" speed="13.89" length="5.32" shape="-140.38,-32.71 -143.11,-34.35 -144.29,-36.12"/>
    </edge>
    <edge id=":gneJ106_6" function="internal">
        <lane id=":gneJ106_6_0" index="0" speed="13.89" length="6.00" shape="-144.29,-36.12 -144.47,-36.41 -144.48,-38.88 -143.12,-41.76"/>
    </edge>
    <edge id=":gneJ106_2" function="internal">
        <lane id=":gneJ106_2_0" index="0" speed="13.89" length="5.24" shape="-140.37,-39.94 -141.00,-38.60 -140.99,-37.46 -140.36,-36.51 -139.10,-35.75"/>
    </edge>
    <edge id=":gneJ106_3" function="internal">
        <lane id=":gneJ106_3_0" index="0" speed="13.89" length="10.05" shape="-140.37,-39.94 -142.23,-37.62 -144.24,-36.09 -146.39,-35.37 -148.67,-35.44"/>
    </edge>
    <edge id=":gneJ106_4" function="internal">
        <lane id=":gneJ106_4_0" index="0" speed="13.89" length="6.13" shape="-148.02,-38.68 -146.77,-38.68 -145.53,-39.19 -144.32,-40.22 -143.12,-41.76"/>
    </edge>
    <edge id=":gneJ106_5" function="internal">
        <lane id=":gneJ106_5_0" index="0" speed="13.89" length="9.42" shape="-148.02,-38.68 -145.29,-38.08 -143.45,-37.55 -141.67,-36.84 -139.10,-35.75"/>
    </edge>
    <edge id=":gneJ107_0" function="internal">
        <lane id=":gneJ107_0_0" index="0" speed="13.89" length="0.37" shape="-224.67,-50.77 -224.78,-50.80 -224.85,-50.81 -224.93,-50.81 -225.04,-50.80"/>
    </edge>
    <edge id=":gneJ107_1" function="internal">
        <lane id=":gneJ107_1_0" index="0" speed="13.89" length="1.14" shape="-225.15,-54.10 -224.81,-54.11 -224.58,-54.11 -224.35,-54.07 -224.02,-54.01"/>
    </edge>
    <edge id=":gneJ108_0" function="internal">
        <lane id=":gneJ108_0_0" index="0" speed="13.89" length="0.31" shape="-265.91,-49.42 -266.22,-49.41"/>
    </edge>
    <edge id=":gneJ108_1" function="internal">
        <lane id=":gneJ108_1_0" index="0" speed="13.89" length="0.28" shape="-266.30,-52.71 -266.02,-52.72"/>
    </edge>
    <edge id=":gneJ109_0" function="internal">
        <lane id=":gneJ109_0_0" index="0" speed="13.89" length="11.75" shape="-284.48,-43.74 -286.07,-46.58 -287.24,-48.95 -288.09,-51.43 -288.73,-54.60"/>
    </edge>
    <edge id=":gneJ109_1" function="internal">
        <lane id=":gneJ109_1_0" index="0" speed="13.89" length="6.08" shape="-284.48,-43.74 -285.95,-47.43 -285.69,-49.52"/>
    </edge>
    <edge id=":gneJ109_6" function="internal">
        <lane id=":gneJ109_6_0" index="0" speed="13.89" length="7.25" shape="-285.69,-49.52 -285.62,-50.10 -283.49,-51.75 -279.57,-52.38"/>
    </edge>
    <edge id=":gneJ109_2" function="internal">
        <lane id=":gneJ109_2_0" index="0" speed="13.89" length="5.75" shape="-279.49,-49.08 -281.18,-48.81 -282.10,-48.10 -282.24,-46.95 -281.61,-45.36"/>
    </edge>
    <edge id=":gneJ109_3" function="internal">
        <lane id=":gneJ109_3_0" index="0" speed="13.89" length="11.87" shape="-279.49,-49.08 -283.19,-49.35 -285.97,-50.36 -287.82,-52.11 -288.73,-54.60"/>
    </edge>
    <edge id=":gneJ109_4" function="internal">
        <lane id=":gneJ109_4_0" index="0" speed="13.89" length="7.08" shape="-285.47,-55.12 -284.94,-53.87 -283.77,-53.00 -281.98,-52.50 -279.57,-52.38"/>
    </edge>
    <edge id=":gneJ109_5" function="internal">
        <lane id=":gneJ109_5_0" index="0" speed="13.89" length="10.59" shape="-285.47,-55.12 -284.89,-52.12 -284.17,-50.02 -283.14,-48.03 -281.61,-45.36"/>
    </edge>
    <edge id=":gneJ11_0" function="internal">
        <lane id=":gneJ11_0_0" index="0" speed="13.89" length="4.44" shape="131.93,104.11 131.18,104.97 130.30,105.60 129.30,106.00 128.17,106.17"/>
    </edge>
    <edge id=":gneJ11_1" function="internal">
        <lane id=":gneJ11_1_0" index="0" speed="13.89" length="1.45" shape="128.01,102.88 128.38,102.82 128.71,102.69 128.99,102.49 129.24,102.21"/>
    </edge>
    <edge id=":gneJ110_0" function="internal">
        <lane id=":gneJ110_0_0" index="0" speed="13.89" length="6.97" shape="-6.51,-18.00 -7.51,-19.83 -8.25,-21.14 -9.27,-22.10 -11.08,-22.90"/>
    </edge>
    <edge id=":gneJ110_1" function="internal">
        <lane id=":gneJ110_1_0" index="0" speed="13.89" length="11.56" shape="-6.51,-18.00 -7.79,-21.02 -7.67,-23.51 -6.15,-25.49 -3.21,-26.95"/>
    </edge>
    <edge id=":gneJ110_2" function="internal">
        <lane id=":gneJ110_2_0" index="0" speed="13.89" length="5.30" shape="-2.18,-23.82 -3.52,-23.15 -4.22,-22.24 -4.28,-21.10 -3.69,-19.72"/>
    </edge>
    <edge id=":gneJ110_3" function="internal">
        <lane id=":gneJ110_3_0" index="0" speed="13.89" length="9.23" shape="-2.18,-23.82 -4.76,-22.89 -6.63,-22.31 -8.49,-22.26 -11.08,-22.90"/>
    </edge>
    <edge id=":gneJ110_4" function="internal">
        <lane id=":gneJ110_4_0" index="0" speed="13.89" length="7.13" shape="-10.06,-26.04 -8.06,-25.58 -6.63,-25.69 -5.20,-26.20 -3.21,-26.95"/>
    </edge>
    <edge id=":gneJ110_5" function="internal">
        <lane id=":gneJ110_5_0" index="0" speed="13.89" length="9.32" shape="-10.06,-26.04 -7.59,-25.00 -6.15,-23.79 -5.07,-22.13 -3.69,-19.72"/>
    </edge>
    <edge id=":gneJ113_0" function="internal">
        <lane id=":gneJ113_0_0" index="0" speed="13.89" length="1.21" shape="-115.38,-77.00 -115.72,-76.90 -115.95,-76.79 -116.13,-76.61 -116.33,-76.32"/>
    </edge>
    <edge id=":gneJ113_1" function="internal">
        <lane id=":gneJ113_1_0" index="0" speed="13.89" length="3.70" shape="-119.09,-78.14 -118.46,-79.03 -117.91,-79.57 -117.22,-79.91 -116.18,-80.20"/>
    </edge>
    <edge id=":gneJ114_0" function="internal">
        <lane id=":gneJ114_0_0" index="0" speed="13.89" length="0.81" shape="103.41,-58.50 103.17,-58.54 103.01,-58.55 102.85,-58.52 102.62,-58.45"/>
    </edge>
    <edge id=":gneJ114_1" function="internal">
        <lane id=":gneJ114_1_0" index="0" speed="13.89" length="2.47" shape="101.58,-61.58 102.28,-61.80 102.78,-61.89 103.28,-61.87 104.00,-61.75"/>
    </edge>
    <edge id=":gneJ115_0" function="internal">
        <lane id=":gneJ115_0_0" index="0" speed="13.89" length="0.38" shape="-0.10,-105.60 -0.21,-105.59 -0.29,-105.59 -0.37,-105.57 -0.48,-105.55"/>
    </edge>
    <edge id=":gneJ115_1" function="internal">
        <lane id=":gneJ115_1_0" index="0" speed="13.89" length="1.16" shape="-1.27,-108.75 -0.94,-108.83 -0.71,-108.87 -0.47,-108.89 -0.13,-108.90"/>
    </edge>
    <edge id=":gneJ116_0" function="internal">
        <lane id=":gneJ116_0_0" index="0" speed="13.89" length="1.89" shape="72.04,-106.54 71.52,-106.33 71.15,-106.22 70.76,-106.18 70.20,-106.17"/>
    </edge>
    <edge id=":gneJ116_1" function="internal">
        <lane id=":gneJ116_1_0" index="0" speed="13.89" length="0.62" shape="70.18,-109.47 70.36,-109.47 70.49,-109.48 70.61,-109.52 70.78,-109.59"/>
    </edge>
    <edge id=":gneJ117_0" function="internal">
        <lane id=":gneJ117_0_0" index="0" speed="13.89" length="3.36" shape="136.40,-53.57 135.52,-53.12 134.86,-52.91 134.16,-52.90 133.19,-53.06"/>
    </edge>
    <edge id=":gneJ117_1" function="internal">
        <lane id=":gneJ117_1_0" index="0" speed="13.89" length="1.10" shape="133.78,-56.30 134.10,-56.25 134.32,-56.26 134.54,-56.32 134.83,-56.47"/>
    </edge>
    <edge id=":gneJ118_0" function="internal">
        <lane id=":gneJ118_0_0" index="0" speed="13.89" length="8.83" shape="163.02,-65.11 160.39,-64.94 158.56,-64.84 156.82,-64.43 154.48,-63.34"/>
    </edge>
    <edge id=":gneJ118_1" function="internal">
        <lane id=":gneJ118_1_0" index="0" speed="13.89" length="6.00" shape="163.02,-65.11 159.09,-65.25 157.31,-66.30"/>
    </edge>
    <edge id=":gneJ118_6" function="internal">
        <lane id=":gneJ118_6_0" index="0" speed="13.89" length="7.23" shape="157.31,-66.30 156.78,-66.61 156.09,-69.21 157.03,-73.02"/>
    </edge>
    <edge id=":gneJ118_2" function="internal">
        <lane id=":gneJ118_2_0" index="0" speed="13.89" length="5.72" shape="160.10,-71.81 159.69,-70.16 159.99,-69.04 160.99,-68.45 162.69,-68.39"/>
    </edge>
    <edge id=":gneJ118_3" function="internal">
        <lane id=":gneJ118_3_0" index="0" speed="13.89" length="10.55" shape="160.10,-71.81 159.07,-68.86 158.25,-66.73 156.96,-65.02 154.48,-63.34"/>
    </edge>
    <edge id=":gneJ118_4" function="internal">
        <lane id=":gneJ118_4_0" index="0" speed="13.89" length="8.25" shape="152.91,-66.25 154.82,-67.58 155.73,-68.96 156.26,-70.67 157.03,-73.02"/>
    </edge>
    <edge id=":gneJ118_5" function="internal">
        <lane id=":gneJ118_5_0" index="0" speed="13.89" length="10.14" shape="152.91,-66.25 155.60,-67.51 157.59,-68.02 159.68,-68.18 162.69,-68.39"/>
    </edge>
    <edge id=":gneJ119_0" function="internal">
        <lane id=":gneJ119_0_0" index="0" speed="13.89" length="8.07" shape="161.02,-87.90 162.97,-86.85 164.11,-85.44 164.42,-83.65 163.91,-81.49"/>
    </edge>
    <edge id=":gneJ119_1" function="internal">
        <lane id=":gneJ119_1_0" index="0" speed="13.89" length="2.63" shape="160.84,-82.70 161.01,-83.41 160.91,-83.99 160.53,-84.45 159.89,-84.79"/>
    </edge>
    <edge id=":gneJ12_0" function="internal">
        <lane id=":gneJ12_0_0" index="0" speed="13.89" length="0.83" shape="149.22,80.08 149.00,80.19 148.86,80.28 148.74,80.40 148.59,80.60"/>
    </edge>
    <edge id=":gneJ12_1" function="internal">
        <lane id=":gneJ12_1_0" index="0" speed="13.89" length="2.53" shape="145.90,78.69 146.34,78.09 146.70,77.71 147.13,77.43 147.80,77.09"/>
    </edge>
    <edge id=":gneJ120_0" function="internal">
        <lane id=":gneJ120_0_0" index="0" speed="13.89" length="1.01" shape="143.15,-90.84 142.87,-90.93 142.66,-90.97 142.46,-90.95 142.17,-90.87"/>
    </edge>
    <edge id=":gneJ120_1" function="internal">
        <lane id=":gneJ120_1_0" index="0" speed="13.89" length="3.08" shape="141.28,-94.05 142.15,-94.28 142.78,-94.34 143.41,-94.23 144.27,-93.94"/>
    </edge>
    <edge id=":gneJ122_0" function="internal">
        <lane id=":gneJ122_0_0" index="0" speed="13.89" length="0.99" shape="178.58,-66.75 178.30,-66.67 178.11,-66.62 177.91,-66.59 177.62,-66.56"/>
    </edge>
    <edge id=":gneJ122_1" function="internal">
        <lane id=":gneJ122_1_0" index="0" speed="13.89" length="0.32" shape="177.29,-69.84 177.39,-69.85 177.45,-69.86 177.52,-69.88 177.61,-69.91"/>
    </edge>
    <edge id=":gneJ123_0" function="internal">
        <lane id=":gneJ123_0_0" index="0" speed="13.89" length="0.73" shape="200.86,-73.71 200.66,-73.61 200.53,-73.55 200.39,-73.50 200.18,-73.44"/>
    </edge>
    <edge id=":gneJ123_1" function="internal">
        <lane id=":gneJ123_1_0" index="0" speed="13.89" length="0.24" shape="199.20,-76.59 199.27,-76.61 199.32,-76.63 199.36,-76.65 199.42,-76.68"/>
    </edge>
    <edge id=":gneJ124_0" function="internal">
        <lane id=":gneJ124_0_0" index="0" speed="13.89" length="7.61" shape="220.64,-80.57 218.38,-80.73 216.79,-80.79 215.27,-80.52 213.22,-79.67"/>
    </edge>
    <edge id=":gneJ124_1" function="internal">
        <lane id=":gneJ124_1_0" index="0" speed="13.89" length="5.27" shape="220.64,-80.57 217.46,-81.17 215.82,-82.38"/>
    </edge>
    <edge id=":gneJ124_6" function="internal">
        <lane id=":gneJ124_6_0" index="0" speed="13.89" length="6.18" shape="215.82,-82.38 215.46,-82.65 214.64,-85.00 214.99,-88.21"/>
    </edge>
    <edge id=":gneJ124_2" function="internal">
        <lane id=":gneJ124_2_0" index="0" speed="13.89" length="5.27" shape="218.19,-87.38 218.02,-85.90 218.40,-84.82 219.32,-84.14 220.79,-83.86"/>
    </edge>
    <edge id=":gneJ124_3" function="internal">
        <lane id=":gneJ124_3_0" index="0" speed="13.89" length="9.44" shape="218.19,-87.38 217.29,-84.62 216.16,-82.42 214.80,-80.77 213.22,-79.67"/>
    </edge>
    <edge id=":gneJ124_4" function="internal">
        <lane id=":gneJ124_4_0" index="0" speed="13.89" length="6.59" shape="211.79,-82.65 212.74,-83.36 213.60,-84.52 214.35,-86.14 214.99,-88.21"/>
    </edge>
    <edge id=":gneJ124_5" function="internal">
        <lane id=":gneJ124_5_0" index="0" speed="13.89" length="9.26" shape="211.79,-82.65 214.28,-83.70 216.12,-84.07 218.04,-84.04 220.79,-83.86"/>
    </edge>
    <edge id=":gneJ125_0" function="internal">
        <lane id=":gneJ125_0_0" index="0" speed="13.89" length="5.57" shape="218.37,-99.29 219.37,-98.23 219.97,-97.04 220.17,-95.73 219.98,-94.29"/>
    </edge>
    <edge id=":gneJ125_1" function="internal">
        <lane id=":gneJ125_1_0" index="0" speed="13.89" length="1.82" shape="216.78,-95.12 216.85,-95.59 216.78,-96.02 216.58,-96.40 216.26,-96.75"/>
    </edge>
    <edge id=":gneJ13_0" function="internal">
        <lane id=":gneJ13_0_0" index="0" speed="13.89" length="0.10" shape="177.58,66.66 177.67,66.62"/>
    </edge>
    <edge id=":gneJ13_1" function="internal">
        <lane id=":gneJ13_1_0" index="0" speed="13.89" length="0.10" shape="176.25,63.64 176.34,63.60"/>
    </edge>
    <edge id=":gneJ14_0" function="internal">
        <lane id=":gneJ14_0_0" index="0" speed="13.89" length="16.76" shape="207.30,47.58 206.62,50.91 204.56,53.93 201.14,56.63 196.35,59.02"/>
    </edge>
    <edge id=":gneJ14_1" function="internal">
        <lane id=":gneJ14_1_0" index="0" speed="13.89" length="7.34" shape="207.30,47.58 206.53,50.89 204.20,52.72 203.22,52.81"/>
    </edge>
    <edge id=":gneJ14_6" function="internal">
        <lane id=":gneJ14_6_0" index="0" speed="13.89" length="8.43" shape="203.22,52.81 200.33,53.07 194.92,51.95"/>
    </edge>
    <edge id=":gneJ14_2" function="internal">
        <lane id=":gneJ14_2_0" index="0" speed="13.89" length="9.40" shape="195.86,48.79 199.42,49.63 201.97,49.71 203.49,49.03 204.00,47.58"/>
    </edge>
    <edge id=":gneJ14_3" function="internal">
        <lane id=":gneJ14_3_0" index="0" speed="13.89" length="18.30" shape="195.86,48.79 201.42,51.09 203.36,53.56 201.67,56.20 196.35,59.02"/>
    </edge>
    <edge id=":gneJ14_4" function="internal">
        <lane id=":gneJ14_4_0" index="0" speed="13.89" length="7.18" shape="195.11,55.96 197.19,54.86 197.85,53.82 197.09,52.85 194.92,51.95"/>
    </edge>
    <edge id=":gneJ14_5" function="internal">
        <lane id=":gneJ14_5_0" index="0" speed="13.89" length="12.87" shape="195.11,55.96 199.00,54.08 201.78,52.06 203.44,49.89 204.00,47.58"/>
    </edge>
    <edge id=":gneJ148_0" function="internal">
        <lane id=":gneJ148_0_0" index="0" speed="13.89" length="0.99" shape="200.07,-110.21 199.84,-110.39 199.66,-110.49 199.47,-110.54 199.18,-110.57"/>
    </edge>
    <edge id=":gneJ148_1" function="internal">
        <lane id=":gneJ148_1_0" index="0" speed="13.89" length="3.02" shape="199.46,-113.86 200.34,-113.77 200.94,-113.61 201.48,-113.30 202.18,-112.75"/>
    </edge>
    <edge id=":gneJ149_0" function="internal">
        <lane id=":gneJ149_0_0" index="0" speed="13.89" length="1.39" shape="159.57,-113.92 159.22,-113.92 158.89,-113.84 158.58,-113.68 158.31,-113.46"/>
    </edge>
    <edge id=":gneJ149_1" function="internal">
        <lane id=":gneJ149_1_0" index="0" speed="13.89" length="4.26" shape="155.97,-115.79 156.82,-116.48 157.75,-116.95 158.76,-117.19 159.85,-117.21"/>
    </edge>
    <edge id=":gneJ15_0" function="internal">
        <lane id=":gneJ15_0_0" index="0" speed="13.89" length="3.50" shape="185.07,48.99 184.09,48.67 183.46,48.33 182.95,47.81 182.37,46.97"/>
    </edge>
    <edge id=":gneJ15_1" function="internal">
        <lane id=":gneJ15_1_0" index="0" speed="13.89" length="1.14" shape="185.13,45.17 185.32,45.45 185.49,45.62 185.70,45.73 186.02,45.83"/>
    </edge>
    <edge id=":gneJ153_0" function="internal">
        <lane id=":gneJ153_0_0" index="0" speed="13.89" length="4.43" shape="230.50,-81.98 229.67,-81.20 228.74,-80.66 227.71,-80.36 226.57,-80.30"/>
    </edge>
    <edge id=":gneJ153_1" function="internal">
        <lane id=":gneJ153_1_0" index="0" speed="13.89" length="1.44" shape="226.73,-83.59 227.10,-83.61 227.43,-83.71 227.74,-83.89 228.01,-84.14"/>
    </edge>
    <edge id=":gneJ154_0" function="internal">
        <lane id=":gneJ154_0_0" index="0" speed="13.89" length="3.94" shape="245.17,-101.20 245.17,-100.19 244.97,-99.25 244.58,-98.37 243.99,-97.55"/>
    </edge>
    <edge id=":gneJ154_1" function="internal">
        <lane id=":gneJ154_1_0" index="0" speed="13.89" length="1.29" shape="241.50,-99.71 241.69,-99.98 241.82,-100.26 241.88,-100.57 241.88,-100.90"/>
    </edge>
    <edge id=":gneJ155_0" function="internal">
        <lane id=":gneJ155_0_0" index="0" speed="13.89" length="1.80" shape="240.41,-117.08 240.31,-117.54 240.11,-117.91 239.80,-118.21 239.38,-118.43"/>
    </edge>
    <edge id=":gneJ155_1" function="internal">
        <lane id=":gneJ155_1_0" index="0" speed="13.89" length="5.51" shape="240.55,-121.52 241.82,-120.85 242.77,-119.94 243.40,-118.78 243.70,-117.38"/>
    </edge>
    <edge id=":gneJ156_0" function="internal">
        <lane id=":gneJ156_0_0" index="0" speed="13.89" length="0.55" shape="215.12,-127.60 214.96,-127.65 214.85,-127.68 214.74,-127.69 214.58,-127.70"/>
    </edge>
    <edge id=":gneJ156_1" function="internal">
        <lane id=":gneJ156_1_0" index="0" speed="13.89" length="1.70" shape="214.63,-131.00 215.13,-130.99 215.48,-130.95 215.81,-130.86 216.28,-130.68"/>
    </edge>
    <edge id=":gneJ157_0" function="internal">
        <lane id=":gneJ157_0_0" index="0" speed="13.89" length="0.38" shape="144.33,-128.87 144.21,-128.87 144.14,-128.87 144.06,-128.86 143.95,-128.83"/>
    </edge>
    <edge id=":gneJ157_1" function="internal">
        <lane id=":gneJ157_1_0" index="0" speed="13.89" length="1.16" shape="143.23,-132.05 143.57,-132.13 143.80,-132.16 144.04,-132.17 144.38,-132.17"/>
    </edge>
    <edge id=":gneJ158_0" function="internal">
        <lane id=":gneJ158_0_0" index="0" speed="13.89" length="0.28" shape="104.85,-120.08 104.77,-120.06 104.71,-120.04 104.66,-120.03 104.58,-119.99"/>
    </edge>
    <edge id=":gneJ158_1" function="internal">
        <lane id=":gneJ158_1_0" index="0" speed="13.89" length="0.84" shape="103.32,-123.04 103.56,-123.14 103.72,-123.20 103.88,-123.24 104.13,-123.30"/>
    </edge>
    <edge id=":gneJ16_0" function="internal">
        <lane id=":gneJ16_0_0" index="0" speed="13.89" length="4.82" shape="178.44,40.92 177.59,39.95 176.61,39.41 175.50,39.33 174.26,39.69"/>
    </edge>
    <edge id=":gneJ16_1" function="internal">
        <lane id=":gneJ16_1_0" index="0" speed="13.89" length="9.30" shape="178.44,40.92 177.33,38.65 177.05,36.46 177.58,34.37 178.92,32.37"/>
    </edge>
    <edge id=":gneJ16_2" function="internal">
        <lane id=":gneJ16_2_0" index="0" speed="13.89" length="4.95" shape="181.38,34.57 180.69,35.62 180.43,36.72 180.60,37.89 181.20,39.12"/>
    </edge>
    <edge id=":gneJ16_3" function="internal">
        <lane id=":gneJ16_3_0" index="0" speed="13.89" length="8.89" shape="181.38,34.57 179.60,36.50 178.22,37.68 176.65,38.59 174.26,39.69"/>
    </edge>
    <edge id=":gneJ16_4" function="internal">
        <lane id=":gneJ16_4_0" index="0" speed="13.89" length="7.49" shape="172.91,36.67 174.93,35.75 176.26,34.99 177.42,33.99 178.92,32.37"/>
    </edge>
    <edge id=":gneJ16_5" function="internal">
        <lane id=":gneJ16_5_0" index="0" speed="13.89" length="4.78" shape="172.91,36.67 175.38,35.96 177.58,36.13"/>
    </edge>
    <edge id=":gneJ16_6" function="internal">
        <lane id=":gneJ16_6_0" index="0" speed="13.89" length="4.78" shape="177.58,36.13 179.52,37.18 181.20,39.12"/>
    </edge>
    <edge id=":gneJ160_0" function="internal">
        <lane id=":gneJ160_0_0" index="0" speed="13.89" length="0.27" shape="-338.26,147.21 -338.34,147.19 -338.39,147.19 -338.45,147.18 -338.53,147.18"/>
    </edge>
    <edge id=":gneJ160_1" function="internal">
        <lane id=":gneJ160_1_0" index="0" speed="13.89" length="0.83" shape="-338.48,143.88 -338.23,143.89 -338.06,143.90 -337.90,143.92 -337.66,143.96"/>
    </edge>
    <edge id=":gneJ161_0" function="internal">
        <lane id=":gneJ161_0_0" index="0" speed="13.89" length="0.13" shape="-426.46,145.75 -426.59,145.75"/>
    </edge>
    <edge id=":gneJ161_1" function="internal">
        <lane id=":gneJ161_1_0" index="0" speed="13.89" length="0.27" shape="-426.68,142.45 -426.41,142.45"/>
    </edge>
    <edge id=":gneJ162_0" function="internal">
        <lane id=":gneJ162_0_0" index="0" speed="13.89" length="0.12" shape="-565.52,149.66 -565.64,149.67"/>
    </edge>
    <edge id=":gneJ162_1" function="internal">
        <lane id=":gneJ162_1_0" index="0" speed="13.89" length="0.36" shape="-565.98,146.39 -565.61,146.36"/>
    </edge>
    <edge id=":gneJ163_0" function="internal">
        <lane id=":gneJ163_0_0" index="0" speed="13.89" length="14.58" shape="-647.78,158.11 -651.50,158.32 -655.16,158.47 -658.70,159.00 -662.05,160.34"/>
    </edge>
    <edge id=":gneJ163_1" function="internal">
        <lane id=":gneJ163_1_0" index="0" speed="13.89" length="21.50" shape="-647.78,158.11 -655.10,158.24 -658.17,156.70 -656.98,153.47 -651.54,148.58"/>
    </edge>
    <edge id=":gneJ163_2" function="internal">
        <lane id=":gneJ163_2_0" index="0" speed="13.89" length="8.17" shape="-649.55,151.21 -651.61,153.07 -652.06,154.29 -650.90,154.88 -648.12,154.83"/>
    </edge>
    <edge id=":gneJ163_3" function="internal">
        <lane id=":gneJ163_3_0" index="0" speed="13.89" length="15.50" shape="-649.55,151.21 -652.57,153.55 -655.67,155.96 -658.84,158.27 -662.05,160.34"/>
    </edge>
    <edge id=":gneJ163_4" function="internal">
        <lane id=":gneJ163_4_0" index="0" speed="13.89" length="15.10" shape="-663.72,157.49 -660.55,155.46 -657.50,153.22 -654.52,150.89 -651.54,148.58"/>
    </edge>
    <edge id=":gneJ163_5" function="internal">
        <lane id=":gneJ163_5_0" index="0" speed="13.89" length="15.94" shape="-663.72,157.49 -660.16,156.08 -656.16,155.40 -652.05,155.10 -648.12,154.83"/>
    </edge>
    <edge id=":gneJ165_0" function="internal">
        <lane id=":gneJ165_0_0" index="0" speed="13.89" length="1.81" shape="-586.70,107.92 -587.23,107.89 -587.60,107.84 -587.95,107.72 -588.44,107.51"/>
    </edge>
    <edge id=":gneJ165_1" function="internal">
        <lane id=":gneJ165_1_0" index="0" speed="13.89" length="0.59" shape="-587.12,104.49 -586.96,104.56 -586.84,104.60 -586.72,104.61 -586.55,104.62"/>
    </edge>
    <edge id=":gneJ167_0" function="internal">
        <lane id=":gneJ167_0_0" index="0" speed="13.89" length="1.42" shape="-614.22,96.20 -614.60,96.02 -614.86,95.89 -615.09,95.72 -615.41,95.45"/>
    </edge>
    <edge id=":gneJ167_1" function="internal">
        <lane id=":gneJ167_1_0" index="0" speed="13.89" length="0.46" shape="-613.28,92.93 -613.18,93.02 -613.10,93.07 -613.02,93.12 -612.89,93.17"/>
    </edge>
    <edge id=":gneJ168_0" function="internal">
        <lane id=":gneJ168_0_0" index="0" speed="13.89" length="17.95" shape="-634.15,88.34 -635.87,84.49 -637.81,80.13 -639.86,75.83 -641.90,72.16"/>
    </edge>
    <edge id=":gneJ168_1" function="internal">
        <lane id=":gneJ168_1_0" index="0" speed="13.89" length="11.41" shape="-634.15,88.34 -637.36,79.91 -637.19,77.52"/>
    </edge>
    <edge id=":gneJ168_6" function="internal">