<?xml version="1.0" encoding="UTF-8"?>

<!-- generated on Tue 17 Jul 2018 05:11:36 PM UTC by Netedit Version 0.30.0
<?xml version="1.0" encoding="UTF-8"?>

<configuration xmlns:xsi="http://www.w3.org/2001/XMLSchema-instance" xsi:noNamespaceSchemaLocation="http://sumo.dlr.de/xsd/netconvertConfiguration.xsd">

    <input>
        <sumo-net-file value="grid.net.xml"/>
    </input>

    <output>
        <output-file value="grid.net.xml"/>
    </output>

    <processing>
        <no-turnarounds value="true"/>
        <offset.disable-normalization value="true"/>
        <lefthand value="false"/>
        <junctions.corner-detail value="0"/>
        <rectangular-lane-cut value="false"/>
    </processing>

</configuration>
-->

<net version="0.27" xmlns:xsi="http://www.w3.org/2001/XMLSchema-instance" xsi:noNamespaceSchemaLocation="http://sumo.dlr.de/xsd/net_file.xsd">

    <location netOffset="0.00,0.00" convBoundary="-100.00,-20.00,100.00,260.00" origBoundary="-10000000000.00,-10000000000.00,10000000000.00,10000000000.00" projParameter="!"/>

    <edge id=":gneJ0_0" function="internal">
        <lane id=":gneJ0_0_0" index="0" speed="13.89" length="3.97" shape="-4.95,1.50 -8.25,-1.50"/>
        <lane id=":gneJ0_0_1" index="1" speed="13.89" length="3.97" shape="-1.65,1.50 -4.95,-1.50"/>
        <lane id=":gneJ0_0_2" index="2" speed="13.89" length="3.97" shape="-1.65,1.50 -1.65,-1.50"/>
    </edge>
    <edge id=":gneJ0_3" function="internal">
        <lane id=":gneJ0_3_0" index="0" speed="13.89" length="3.00" shape="4.95,-1.50 4.95,1.50"/>
        <lane id=":gneJ0_3_1" index="1" speed="13.89" length="3.00" shape="1.65,-1.50 1.65,1.50"/>
    </edge>
    <edge id=":gneJ1_0" function="internal">
        <lane id=":gneJ1_0_0" index="0" speed="13.89" length="3.00" shape="-4.95,31.50 -4.95,28.50"/>
        <lane id=":gneJ1_0_1" index="1" speed="13.89" length="3.00" shape="-1.65,31.50 -1.65,28.50"/>
    </edge>
    <edge id=":gneJ1_2" function="internal">
        <lane id=":gneJ1_2_0" index="0" speed="13.89" length="3.97" shape="4.95,28.50 8.25,31.50"/>
        <lane id=":gneJ1_2_1" index="1" speed="13.89" length="3.97" shape="1.65,28.50 4.95,31.50"/>
        <lane id=":gneJ1_2_2" index="2" speed="13.89" length="3.97" shape="1.65,28.50 1.65,31.50"/>
    </edge>
    <edge id=":gneJ10_0" function="internal">
        <lane id=":gneJ10_0_0" index="0" speed="13.89" length="5.00" shape="98.35,54.75 98.16,53.39 97.57,52.42 96.61,51.84 95.25,51.65"/>
    </edge>
    <edge id=":gneJ10_1" function="internal">
        <lane id=":gneJ10_1_0" index="0" speed="13.89" length="9.50" shape="98.35,54.75 98.35,45.25"/>
    </edge>
    <edge id=":gneJ10_2" function="internal">
        <lane id=":gneJ10_2_0" index="0" speed="13.89" length="9.50" shape="101.65,45.25 101.65,54.75"/>
    </edge>
    <edge id=":gneJ10_3" function="internal">
        <lane id=":gneJ10_3_0" index="0" speed="13.89" length="10.32" shape="101.65,45.25 101.25,48.05 100.05,50.05 98.05,51.25 95.25,51.65"/>
    </edge>
    <edge id=":gneJ10_4" function="internal">
        <lane id=":gneJ10_4_0" index="0" speed="13.89" length="5.00" shape="95.25,48.35 96.61,48.16 97.57,47.58 98.16,46.61 98.35,45.25"/>
    </edge>
    <edge id=":gneJ10_5" function="internal">
        <lane id=":gneJ10_5_0" index="0" speed="13.89" length="10.32" shape="95.25,48.35 98.05,48.75 100.05,49.95 101.25,51.95 101.65,54.75"/>
    </edge>
    <edge id=":gneJ11_0" function="internal">
        <lane id=":gneJ11_0_0" index="0" speed="13.89" length="2.58" shape="98.35,-16.75 98.25,-17.45 97.95,-17.95 97.45,-18.25 96.75,-18.35"/>
    </edge>
    <edge id=":gneJ11_1" function="internal">
        <lane id=":gneJ11_1_0" index="0" speed="13.89" length="7.90" shape="96.75,-21.65 98.89,-21.34 100.43,-20.43 101.34,-18.89 101.65,-16.75"/>
    </edge>
    <edge id=":gneJ13_0" function="internal">
        <lane id=":gneJ13_0_0" index="0" speed="13.89" length="5.00" shape="-51.65,-15.25 -51.84,-16.61 -52.42,-17.58 -53.39,-18.16 -54.75,-18.35"/>
    </edge>
    <edge id=":gneJ13_1" function="internal">
        <lane id=":gneJ13_1_0" index="0" speed="13.89" length="10.32" shape="-51.65,-15.25 -51.25,-18.05 -50.05,-20.05 -48.05,-21.25 -45.25,-21.65"/>
    </edge>
    <edge id=":gneJ13_2" function="internal">
        <lane id=":gneJ13_2_0" index="0" speed="13.89" length="5.00" shape="-45.25,-18.35 -46.61,-18.16 -47.57,-17.58 -48.16,-16.61 -48.35,-15.25"/>
    </edge>
    <edge id=":gneJ13_3" function="internal">
        <lane id=":gneJ13_3_0" index="0" speed="13.89" length="9.50" shape="-45.25,-18.35 -54.75,-18.35"/>
    </edge>
    <edge id=":gneJ13_4" function="internal">
        <lane id=":gneJ13_4_0" index="0" speed="13.89" length="9.50" shape="-54.75,-21.65 -45.25,-21.65"/>
    </edge>
    <edge id=":gneJ13_5" function="internal">
        <lane id=":gneJ13_5_0" index="0" speed="13.89" length="10.32" shape="-54.75,-21.65 -51.95,-21.25 -49.95,-20.05 -48.75,-18.05 -48.35,-15.25"/>
    </edge>
    <edge id=":gneJ14_0" function="internal">
        <lane id=":gneJ14_0_0" index="0" speed="13.89" length="5.00" shape="-51.65,54.75 -51.84,53.39 -52.42,52.42 -53.39,51.84 -54.75,51.65"/>
    </edge>
    <edge id=":gneJ14_1" function="internal">
        <lane id=":gneJ14_1_0" index="0" speed="13.89" length="9.50" shape="-51.65,54.75 -51.65,45.25"/>
    </edge>
    <edge id=":gneJ14_2" function="internal">
        <lane id=":gneJ14_2_0" index="0" speed="13.89" length="10.32" shape="-51.65,54.75 -51.25,51.95 -50.05,49.95 -48.05,48.75 -45.25,48.35"/>
    </edge>
    <edge id=":gneJ14_3" function="internal">
        <lane id=":gneJ14_3_0" index="0" speed="13.89" length="5.00" shape="-45.25,51.65 -46.61,51.84 -47.57,52.42 -48.16,53.39 -48.35,54.75"/>
    </edge>
    <edge id=":gneJ14_4" function="internal">
        <lane id=":gneJ14_4_0" index="0" speed="13.89" length="9.50" shape="-45.25,51.65 -54.75,51.65"/>
    </edge>
    <edge id=":gneJ14_5" function="internal">
        <lane id=":gneJ14_5_0" index="0" speed="13.89" length="5.28" shape="-45.25,51.65 -48.05,51.25 -50.05,50.05 -50.11,49.95"/>
    </edge>
    <edge id=":gneJ14_12" function="internal">
        <lane id=":gneJ14_12_0" index="0" speed="13.89" length="5.04" shape="-50.11,49.95 -51.25,48.05 -51.65,45.25"/>
    </edge>
    <edge id=":gneJ14_6" function="internal">
        <lane id=":gneJ14_6_0" index="0" speed="13.89" length="5.00" shape="-48.35,45.25 -48.16,46.61 -47.58,47.57 -46.61,48.16 -45.25,48.35"/>
    </edge>
    <edge id=":gneJ14_7" function="internal">
        <lane id=":gneJ14_7_0" index="0" speed="13.89" length="9.50" shape="-48.35,45.25 -48.35,54.75"/>
    </edge>
    <edge id=":gneJ14_8" function="internal">
        <lane id=":gneJ14_8_0" index="0" speed="13.89" length="10.32" shape="-48.35,45.25 -48.75,48.05 -49.95,50.05 -51.95,51.25 -54.75,51.65"/>
    </edge>
    <edge id=":gneJ14_9" function="internal">
        <lane id=":gneJ14_9_0" index="0" speed="13.89" length="5.00" shape="-54.75,48.35 -53.39,48.16 -52.43,47.58 -51.84,46.61 -51.65,45.25"/>
    </edge>
    <edge id=":gneJ14_10" function="internal">
        <lane id=":gneJ14_10_0" index="0" speed="13.89" length="9.50" shape="-54.75,48.35 -45.25,48.35"/>
    </edge>
    <edge id=":gneJ14_11" function="internal">
        <lane id=":gneJ14_11_0" index="0" speed="13.89" length="5.28" shape="-54.75,48.35 -51.95,48.75 -49.95,49.95 -49.89,50.05"/>
    </edge>
    <edge id=":gneJ14_13" function="internal">
        <lane id=":gneJ14_13_0" index="0" speed="13.89" length="5.04" shape="-49.89,50.05 -48.75,51.95 -48.35,54.75"/>
    </edge>
    <edge id=":gneJ15_0" function="internal">
        <lane id=":gneJ15_0_0" index="0" speed="13.89" length="7.90" shape="-101.65,-16.75 -101.34,-18.89 -100.43,-20.43 -98.89,-21.34 -96.75,-21.65"/>
    </edge>
    <edge id=":gneJ15_1" function="internal">
        <lane id=":gneJ15_1_0" index="0" speed="13.89" length="2.58" shape="-96.75,-18.35 -97.45,-18.25 -97.95,-17.95 -98.25,-17.45 -98.35,-16.75"/>
    </edge>
    <edge id=":gneJ16_0" function="internal">
        <lane id=":gneJ16_0_0" index="0" speed="13.89" length="9.50" shape="-101.65,54.75 -101.65,45.25"/>
    </edge>
    <edge id=":gneJ16_1" function="internal">
        <lane id=":gneJ16_1_0" index="0" speed="13.89" length="10.32" shape="-101.65,54.75 -101.25,51.95 -100.05,49.95 -98.05,48.75 -95.25,48.35"/>
    </edge>
    <edge id=":gneJ16_2" function="internal">
        <lane id=":gneJ16_2_0" index="0" speed="13.89" length="5.00" shape="-95.25,51.65 -96.61,51.84 -97.57,52.42 -98.16,53.39 -98.35,54.75"/>
    </edge>
    <edge id=":gneJ16_3" function="internal">
        <lane id=":gneJ16_3_0" index="0" speed="13.89" length="10.32" shape="-95.25,51.65 -98.05,51.25 -100.05,50.05 -101.25,48.05 -101.65,45.25"/>
    </edge>
    <edge id=":gneJ16_4" function="internal">
        <lane id=":gneJ16_4_0" index="0" speed="13.89" length="5.00" shape="-98.35,45.25 -98.16,46.61 -97.57,47.57 -96.61,48.16 -95.25,48.35"/>
    </edge>
    <edge id=":gneJ16_5" function="internal">
        <lane id=":gneJ16_5_0" index="0" speed="13.89" length="9.50" shape="-98.35,45.25 -98.35,54.75"/>
    </edge>
    <edge id=":gneJ17_0" function="internal">
        <lane id=":gneJ17_0_0" index="0" speed="13.89" length="3.00" shape="-4.95,101.50 -4.95,98.50"/>
        <lane id=":gneJ17_0_1" index="1" speed="13.89" length="3.00" shape="-1.65,101.50 -1.65,98.50"/>
    </edge>
    <edge id=":gneJ17_2" function="internal">
        <lane id=":gneJ17_2_0" index="0" speed="13.89" length="3.97" shape="4.95,98.50 8.25,101.50"/>
        <lane id=":gneJ17_2_1" index="1" speed="13.89" length="3.97" shape="1.65,98.50 4.95,101.50"/>
        <lane id=":gneJ17_2_2" index="2" speed="13.89" length="3.97" shape="1.65,98.50 1.65,101.50"/>
    </edge>
    <edge id=":gneJ18_0" function="internal">
        <lane id=":gneJ18_0_0" index="0" speed="13.89" length="5.00" shape="-8.25,124.75 -8.44,123.39 -9.02,122.43 -9.99,121.84 -11.35,121.65"/>
    </edge>
    <edge id=":gneJ18_1" function="internal">
        <lane id=":gneJ18_1_0" index="0" speed="13.89" length="10.23" shape="-8.25,124.75 -7.73,121.85 -6.60,120.00 -5.47,118.15 -4.95,115.25"/>
        <lane id=":gneJ18_1_1" index="1" speed="13.89" length="10.23" shape="-4.95,124.75 -4.43,121.85 -3.30,120.00 -2.17,118.15 -1.65,115.25"/>
    </edge>
    <edge id=":gneJ18_3" function="internal">
        <lane id=":gneJ18_3_0" index="0" speed="13.89" length="16.01" shape="-1.65,124.75 -0.84,121.95 1.60,119.95 5.66,118.75 11.35,118.35"/>
    </edge>
    <edge id=":gneJ18_4" function="internal">
        <lane id=":gneJ18_4_0" index="0" speed="13.89" length="7.85" shape="11.35,121.65 8.55,121.84 6.55,122.43 5.35,123.39 4.95,124.75"/>
    </edge>
    <edge id=":gneJ18_5" function="internal">
        <lane id=":gneJ18_5_0" index="0" speed="13.89" length="22.70" shape="11.35,121.65 -11.35,121.65"/>
    </edge>
    <edge id=":gneJ18_6" function="internal">
        <lane id=":gneJ18_6_0" index="0" speed="13.89" length="10.10" shape="11.35,121.65 5.66,121.25 1.60,120.05 1.48,119.95"/>
    </edge>
    <edge id=":gneJ18_14" function="internal">
        <lane id=":gneJ18_14_0" index="0" speed="13.89" length="5.91" shape="1.48,119.95 -0.84,118.05 -1.65,115.25"/>
    </edge>
    <edge id=":gneJ18_7" function="internal">
        <lane id=":gneJ18_7_0" index="0" speed="13.89" length="5.00" shape="8.25,115.25 8.44,116.61 9.02,117.57 9.99,118.16 11.35,118.35"/>
    </edge>
    <edge id=":gneJ18_8" function="internal">
        <lane id=":gneJ18_8_0" index="0" speed="13.89" length="10.23" shape="8.25,115.25 7.73,118.15 6.60,120.00 5.47,121.85 4.95,124.75"/>
        <lane id=":gneJ18_8_1" index="1" speed="13.89" length="10.23" shape="4.95,115.25 4.43,118.15 3.30,120.00 2.17,121.85 1.65,124.75"/>
    </edge>
    <edge id=":gneJ18_10" function="internal">
        <lane id=":gneJ18_10_0" index="0" speed="13.89" length="16.01" shape="1.65,115.25 0.84,118.05 -1.60,120.05 -5.66,121.25 -11.35,121.65"/>
    </edge>
    <edge id=":gneJ18_11" function="internal">
        <lane id=":gneJ18_11_0" index="0" speed="13.89" length="7.85" shape="-11.35,118.35 -8.55,118.16 -6.55,117.57 -5.35,116.61 -4.95,115.25"/>
    </edge>
    <edge id=":gneJ18_12" function="internal">
        <lane id=":gneJ18_12_0" index="0" speed="13.89" length="22.70" shape="-11.35,118.35 11.35,118.35"/>
    </edge>
    <edge id=":gneJ18_13" function="internal">
        <lane id=":gneJ18_13_0" index="0" speed="13.89" length="10.10" shape="-11.35,118.35 -5.66,118.75 -1.60,119.95 -1.48,120.05"/>
    </edge>
    <edge id=":gneJ18_15" function="internal">
        <lane id=":gneJ18_15_0" index="0" speed="13.89" length="5.91" shape="-1.48,120.05 0.84,121.95 1.65,124.75"/>
    </edge>
    <edge id=":gneJ19_0" function="internal">
        <lane id=":gneJ19_0_0" index="0" speed="13.89" length="5.00" shape="48.35,124.75 48.16,123.39 47.58,122.43 46.61,121.84 45.25,121.65"/>
    </edge>
    <edge id=":gneJ19_1" function="internal">
        <lane id=":gneJ19_1_0" index="0" speed="13.89" length="9.50" shape="48.35,124.75 48.35,115.25"/>
    </edge>
    <edge id=":gneJ19_2" function="internal">
        <lane id=":gneJ19_2_0" index="0" speed="13.89" length="5.28" shape="48.35,124.75 48.75,121.95 49.95,119.95 50.05,119.89"/>
    </edge>
    <edge id=":gneJ19_12" function="internal">
        <lane id=":gneJ19_12_0" index="0" speed="13.89" length="5.04" shape="50.05,119.89 51.95,118.75 54.75,118.35"/>
    </edge>
    <edge id=":gneJ19_3" function="internal">
        <lane id=":gneJ19_3_0" index="0" speed="13.89" length="5.00" shape="54.75,121.65 53.39,121.84 52.43,122.43 51.84,123.39 51.65,124.75"/>
    </edge>
    <edge id=":gneJ19_4" function="internal">
        <lane id=":gneJ19_4_0" index="0" speed="13.89" length="9.50" shape="54.75,121.65 45.25,121.65"/>
    </edge>
    <edge id=":gneJ19_5" function="internal">
        <lane id=":gneJ19_5_0" index="0" speed="13.89" length="10.32" shape="54.75,121.65 51.95,121.25 49.95,120.05 48.75,118.05 48.35,115.25"/>
    </edge>
    <edge id=":gneJ19_6" function="internal">
        <lane id=":gneJ19_6_0" index="0" speed="13.89" length="5.00" shape="51.65,115.25 51.84,116.61 52.42,117.57 53.39,118.16 54.75,118.35"/>
    </edge>
    <edge id=":gneJ19_7" function="internal">
        <lane id=":gneJ19_7_0" index="0" speed="13.89" length="9.50" shape="51.65,115.25 51.65,124.75"/>
    </edge>
    <edge id=":gneJ19_8" function="internal">
        <lane id=":gneJ19_8_0" index="0" speed="13.89" length="5.28" shape="51.65,115.25 51.25,118.05 50.05,120.05 49.95,120.11"/>
    </edge>
    <edge id=":gneJ19_13" function="internal">
        <lane id=":gneJ19_13_0" index="0" speed="13.89" length="5.04" shape="49.95,120.11 48.05,121.25 45.25,121.65"/>
    </edge>
    <edge id=":gneJ19_9" function="internal">
        <lane id=":gneJ19_9_0" index="0" speed="13.89" length="5.00" shape="45.25,118.35 46.61,118.16 47.57,117.57 48.16,116.61 48.35,115.25"/>
    </edge>
    <edge id=":gneJ19_10" function="internal">
        <lane id=":gneJ19_10_0" index="0" speed="13.89" length="9.50" shape="45.25,118.35 54.75,118.35"/>
    </edge>
    <edge id=":gneJ19_11" function="internal">
        <lane id=":gneJ19_11_0" index="0" speed="13.89" length="10.32" shape="45.25,118.35 48.05,118.75 50.05,119.95 51.25,121.95 51.65,124.75"/>
    </edge>
    <edge id=":gneJ2_0" function="internal">
        <lane id=":gneJ2_0_0" index="0" speed="13.89" length="5.00" shape="-8.25,54.75 -8.44,53.39 -9.02,52.43 -9.99,51.84 -11.35,51.65"/>
    </edge>
    <edge id=":gneJ2_1" function="internal">
        <lane id=":gneJ2_1_0" index="0" speed="13.89" length="10.23" shape="-8.25,54.75 -7.73,51.85 -6.60,50.00 -5.47,48.15 -4.95,45.25"/>
        <lane id=":gneJ2_1_1" index="1" speed="13.89" length="10.23" shape="-4.95,54.75 -4.43,51.85 -3.30,50.00 -2.17,48.15 -1.65,45.25"/>
    </edge>
    <edge id=":gneJ2_3" function="internal">
        <lane id=":gneJ2_3_0" index="0" speed="13.89" length="16.01" shape="-1.65,54.75 -0.84,51.95 1.60,49.95 5.66,48.75 11.35,48.35"/>
    </edge>
    <edge id=":gneJ2_4" function="internal">
        <lane id=":gneJ2_4_0" index="0" speed="13.89" length="7.85" shape="11.35,51.65 8.55,51.84 6.55,52.42 5.35,53.39 4.95,54.75"/>
    </edge>
    <edge id=":gneJ2_5" function="internal">
        <lane id=":gneJ2_5_0" index="0" speed="13.89" length="22.70" shape="11.35,51.65 -11.35,51.65"/>
    </edge>
    <edge id=":gneJ2_6" function="internal">
        <lane id=":gneJ2_6_0" index="0" speed="13.89" length="10.10" shape="11.35,51.65 5.66,51.25 1.60,50.05 1.48,49.95"/>
    </edge>
    <edge id=":gneJ2_14" function="internal">
        <lane id=":gneJ2_14_0" index="0" speed="13.89" length="5.91" shape="1.48,49.95 -0.84,48.05 -1.65,45.25"/>
    </edge>
    <edge id=":gneJ2_7" function="internal">
        <lane id=":gneJ2_7_0" index="0" speed="13.89" length="5.00" shape="8.25,45.25 8.44,46.61 9.02,47.57 9.99,48.16 11.35,48.35"/>
    </edge>
    <edge id=":gneJ2_8" function="internal">
        <lane id=":gneJ2_8_0" index="0" speed="13.89" length="10.23" shape="8.25,45.25 7.73,48.15 6.60,50.00 5.47,51.85 4.95,54.75"/>
        <lane id=":gneJ2_8_1" index="1" speed="13.89" length="10.23" shape="4.95,45.25 4.43,48.15 3.30,50.00 2.17,51.85 1.65,54.75"/>
    </edge>
    <edge id=":gneJ2_10" function="internal">
        <lane id=":gneJ2_10_0" index="0" speed="13.89" length="16.01" shape="1.65,45.25 0.84,48.05 -1.60,50.05 -5.66,51.25 -11.35,51.65"/>
    </edge>
    <edge id=":gneJ2_11" function="internal">
        <lane id=":gneJ2_11_0" index="0" speed="13.89" length="7.85" shape="-11.35,48.35 -8.55,48.16 -6.55,47.58 -5.35,46.61 -4.95,45.25"/>
    </edge>
    <edge id=":gneJ2_12" function="internal">
        <lane id=":gneJ2_12_0" index="0" speed="13.89" length="22.70" shape="-11.35,48.35 11.35,48.35"/>
    </edge>
    <edge id=":gneJ2_13" function="internal">
        <lane id=":gneJ2_13_0" index="0" speed="13.89" length="10.10" shape="-11.35,48.35 -5.66,48.75 -1.60,49.95 -1.48,50.05"/>
    </edge>
    <edge id=":gneJ2_15" function="internal">
        <lane id=":gneJ2_15_0" index="0" speed="13.89" length="5.91" shape="-1.48,50.05 0.84,51.95 1.65,54.75"/>
    </edge>
    <edge id=":gneJ20_0" function="internal">
        <lane id=":gneJ20_0_0" index="0" speed="13.89" length="5.00" shape="98.35,124.75 98.16,123.39 97.57,122.43 96.61,121.84 95.25,121.65"/>
    </edge>
    <edge id=":gneJ20_1" function="internal">
        <lane id=":gneJ20_1_0" index="0" speed="13.89" length="9.50" shape="98.35,124.75 98.35,115.25"/>
    </edge>
    <edge id=":gneJ20_2" function="internal">
        <lane id=":gneJ20_2_0" index="0" speed="13.89" length="9.50" shape="101.65,115.25 101.65,124.75"/>
    </edge>
    <edge id=":gneJ20_3" function="internal">
        <lane id=":gneJ20_3_0" index="0" speed="13.89" length="10.32" shape="101.65,115.25 101.25,118.05 100.05,120.05 98.05,121.25 95.25,121.65"/>
    </edge>
    <edge id=":gneJ20_4" function="internal">
        <lane id=":gneJ20_4_0" index="0" speed="13.89" length="5.00" shape="95.25,118.35 96.61,118.16 97.57,117.57 98.16,116.61 98.35,115.25"/>
    </edge>
    <edge id=":gneJ20_5" function="internal">
        <lane id=":gneJ20_5_0" index="0" speed="13.89" length="10.32" shape="95.25,118.35 98.05,118.75 100.05,119.95 101.25,121.95 101.65,124.75"/>
    </edge>
    <edge id=":gneJ22_0" function="internal">
        <lane id=":gneJ22_0_0" index="0" speed="13.89" length="5.00" shape="-51.65,124.75 -51.84,123.39 -52.42,122.43 -53.39,121.84 -54.75,121.65"/>
    </edge>
    <edge id=":gneJ22_1" function="internal">
        <lane id=":gneJ22_1_0" index="0" speed="13.89" length="9.50" shape="-51.65,124.75 -51.65,115.25"/>
    </edge>
    <edge id=":gneJ22_2" function="internal">
        <lane id=":gneJ22_2_0" index="0" speed="13.89" length="5.28" shape="-51.65,124.75 -51.25,121.95 -50.05,119.95 -49.95,119.89"/>
    </edge>
    <edge id=":gneJ22_12" function="internal">
        <lane id=":gneJ22_12_0" index="0" speed="13.89" length="5.04" shape="-49.95,119.89 -48.05,118.75 -45.25,118.35"/>
    </edge>
    <edge id=":gneJ22_3" function="internal">
        <lane id=":gneJ22_3_0" index="0" speed="13.89" length="5.00" shape="-45.25,121.65 -46.61,121.84 -47.57,122.43 -48.16,123.39 -48.35,124.75"/>
    </edge>
    <edge id=":gneJ22_4" function="internal">
        <lane id=":gneJ22_4_0" index="0" speed="13.89" length="9.50" shape="-45.25,121.65 -54.75,121.65"/>
    </edge>
    <edge id=":gneJ22_5" function="internal">
        <lane id=":gneJ22_5_0" index="0" speed="13.89" length="10.32" shape="-45.25,121.65 -48.05,121.25 -50.05,120.05 -51.25,118.05 -51.65,115.25"/>
    </edge>
    <edge id=":gneJ22_6" function="internal">
        <lane id=":gneJ22_6_0" index="0" speed="13.89" length="5.00" shape="-48.35,115.25 -48.16,116.61 -47.58,117.57 -46.61,118.16 -45.25,118.35"/>
    </edge>
    <edge id=":gneJ22_7" function="internal">
        <lane id=":gneJ22_7_0" index="0" speed="13.89" length="9.50" shape="-48.35,115.25 -48.35,124.75"/>
    </edge>
    <edge id=":gneJ22_8" function="internal">
        <lane id=":gneJ22_8_0" index="0" speed="13.89" length="5.28" shape="-48.35,115.25 -48.75,118.05 -49.95,120.05 -50.05,120.11"/>
    </edge>
    <edge id=":gneJ22_13" function="internal">
        <lane id=":gneJ22_13_0" index="0" speed="13.89" length="5.04" shape="-50.05,120.11 -51.95,121.25 -54.75,121.65"/>
    </edge>
    <edge id=":gneJ22_9" function="internal">
        <lane id=":gneJ22_9_0" index="0" speed="13.89" length="5.00" shape="-54.75,118.35 -53.39,118.16 -52.43,117.57 -51.84,116.61 -51.65,115.25"/>
    </edge>
    <edge id=":gneJ22_10" function="internal">
        <lane id=":gneJ22_10_0" index="0" speed="13.89" length="9.50" shape="-54.75,118.35 -45.25,118.35"/>
    </edge>
    <edge id=":gneJ22_11" function="internal">
        <lane id=":gneJ22_11_0" index="0" speed="13.89" length="10.32" shape="-54.75,118.35 -51.95,118.75 -49.95,119.95 -48.75,121.95 -48.35,124.75"/>
    </edge>
    <edge id=":gneJ23_0" function="internal">
        <lane id=":gneJ23_0_0" index="0" speed="13.89" length="9.50" shape="-101.65,124.75 -101.65,115.25"/>
    </edge>
    <edge id=":gneJ23_1" function="internal">
        <lane id=":gneJ23_1_0" index="0" speed="13.89" length="10.32" shape="-101.65,124.75 -101.25,121.95 -100.05,119.95 -98.05,118.75 -95.25,118.35"/>
    </edge>
    <edge id=":gneJ23_2" function="internal">
        <lane id=":gneJ23_2_0" index="0" speed="13.89" length="5.00" shape="-95.25,121.65 -96.61,121.84 -97.57,122.43 -98.16,123.39 -98.35,124.75"/>
    </edge>
    <edge id=":gneJ23_3" function="internal">
        <lane id=":gneJ23_3_0" index="0" speed="13.89" length="10.32" shape="-95.25,121.65 -98.05,121.25 -100.05,120.05 -101.25,118.05 -101.65,115.25"/>
    </edge>
    <edge id=":gneJ23_4" function="internal">
        <lane id=":gneJ23_4_0" index="0" speed="13.89" length="5.00" shape="-98.35,115.25 -98.16,116.61 -97.57,117.57 -96.61,118.16 -95.25,118.35"/>
    </edge>
    <edge id=":gneJ23_5" function="internal">
        <lane id=":gneJ23_5_0" index="0" speed="13.89" length="9.50" shape="-98.35,115.25 -98.35,124.75"/>
    </edge>
    <edge id=":gneJ26_0" function="internal">
        <lane id=":gneJ26_0_0" index="0" speed="13.89" length="3.97" shape="-4.95,141.50 -8.25,138.50"/>
        <lane id=":gneJ26_0_1" index="1" speed="13.89" length="3.97" shape="-1.65,141.50 -4.95,138.50"/>
        <lane id=":gneJ26_0_2" index="2" speed="13.89" length="3.97" shape="-1.65,141.50 -1.65,138.50"/>
    </edge>
    <edge id=":gneJ26_3" function="internal">
        <lane id=":gneJ26_3_0" index="0" speed="13.89" length="3.00" shape="4.95,138.50 4.95,141.50"/>
        <lane id=":gneJ26_3_1" index="1" speed="13.89" length="3.00" shape="1.65,138.50 1.65,141.50"/>
    </edge>
    <edge id=":gneJ27_0" function="internal">
        <lane id=":gneJ27_0_0" index="0" speed="13.89" length="3.00" shape="-4.95,171.50 -4.95,168.50"/>
        <lane id=":gneJ27_0_1" index="1" speed="13.89" length="3.00" shape="-1.65,171.50 -1.65,168.50"/>
    </edge>
    <edge id=":gneJ27_2" function="internal">
        <lane id=":gneJ27_2_0" index="0" speed="13.89" length="3.97" shape="4.95,168.50 8.25,171.50"/>
        <lane id=":gneJ27_2_1" index="1" speed="13.89" length="3.97" shape="1.65,168.50 4.95,171.50"/>
        <lane id=":gneJ27_2_2" index="2" speed="13.89" length="3.97" shape="1.65,168.50 1.65,171.50"/>
    </edge>
    <edge id=":gneJ28_0" function="internal">
        <lane id=":gneJ28_0_0" index="0" speed="13.89" length="5.00" shape="-8.25,194.75 -8.44,193.39 -9.02,192.42 -9.99,191.84 -11.35,191.65"/>
    </edge>
    <edge id=":gneJ28_1" function="internal">
        <lane id=":gneJ28_1_0" index="0" speed="13.89" length="10.23" shape="-8.25,194.75 -7.73,191.85 -6.60,190.00 -5.47,188.15 -4.95,185.25"/>
        <lane id=":gneJ28_1_1" index="1" speed="13.89" length="10.23" shape="-4.95,194.75 -4.43,191.85 -3.30,190.00 -2.17,188.15 -1.65,185.25"/>
    </edge>
    <edge id=":gneJ28_3" function="internal">
        <lane id=":gneJ28_3_0" index="0" speed="13.89" length="16.01" shape="-1.65,194.75 -0.84,191.95 1.60,189.95 5.66,188.75 11.35,188.35"/>
    </edge>
    <edge id=":gneJ28_4" function="internal">
        <lane id=":gneJ28_4_0" index="0" speed="13.89" length="7.85" shape="11.35,191.65 8.55,191.84 6.55,192.43 5.35,193.39 4.95,194.75"/>
    </edge>
    <edge id=":gneJ28_5" function="internal">
        <lane id=":gneJ28_5_0" index="0" speed="13.89" length="22.70" shape="11.35,191.65 -11.35,191.65"/>
    </edge>
    <edge id=":gneJ28_6" function="internal">
        <lane id=":gneJ28_6_0" index="0" speed="13.89" length="10.10" shape="11.35,191.65 5.66,191.25 1.60,190.05 1.48,189.95"/>
    </edge>
    <edge id=":gneJ28_14" function="internal">
        <lane id=":gneJ28_14_0" index="0" speed="13.89" length="5.91" shape="1.48,189.95 -0.84,188.05 -1.65,185.25"/>
    </edge>
    <edge id=":gneJ28_7" function="internal">
        <lane id=":gneJ28_7_0" index="0" speed="13.89" length="5.00" shape="8.25,185.25 8.44,186.61 9.02,187.58 9.99,188.16 11.35,188.35"/>
    </edge>
    <edge id=":gneJ28_8" function="internal">
        <lane id=":gneJ28_8_0" index="0" speed="13.89" length="10.23" shape="8.25,185.25 7.73,188.15 6.60,190.00 5.47,191.85 4.95,194.75"/>
        <lane id=":gneJ28_8_1" index="1" speed="13.89" length="10.23" shape="4.95,185.25 4.43,188.15 3.30,190.00 2.17,191.85 1.65,194.75"/>
    </edge>
    <edge id=":gneJ28_10" function="internal">
        <lane id=":gneJ28_10_0" index="0" speed="13.89" length="16.01" shape="1.65,185.25 0.84,188.05 -1.60,190.05 -5.66,191.25 -11.35,191.65"/>
    </edge>
    <edge id=":gneJ28_11" function="internal">
        <lane id=":gneJ28_11_0" index="0" speed="13.89" length="7.85" shape="-11.35,188.35 -8.55,188.16 -6.55,187.57 -5.35,186.61 -4.95,185.25"/>
    </edge>
    <edge id=":gneJ28_12" function="internal">
        <lane id=":gneJ28_12_0" index="0" speed="13.89" length="22.70" shape="-11.35,188.35 11.35,188.35"/>
    </edge>
    <edge id=":gneJ28_13" function="internal">
        <lane id=":gneJ28_13_0" index="0" speed="13.89" length="10.10" shape="-11.35,188.35 -5.66,188.75 -1.60,189.95 -1.48,190.05"/>
    </edge>
    <edge id=":gneJ28_15" function="internal">
        <lane id=":gneJ28_15_0" index="0" speed="13.89" length="5.91" shape="-1.48,190.05 0.84,191.95 1.65,194.75"/>
    </edge>
    <edge id=":gneJ29_0" function="internal">
        <lane id=":gneJ29_0_0" index="0" speed="13.89" length="5.00" shape="-51.65,194.75 -51.84,193.39 -52.42,192.42 -53.39,191.84 -54.75,191.65"/>
    </edge>
    <edge id=":gneJ29_1" function="internal">
        <lane id=":gneJ29_1_0" index="0" speed="13.89" length="9.50" shape="-51.65,194.75 -51.65,185.25"/>
    </edge>
    <edge id=":gneJ29_2" function="internal">
        <lane id=":gneJ29_2_0" index="0" speed="13.89" length="5.28" shape="-51.65,194.75 -51.25,191.95 -50.05,189.95 -49.95,189.89"/>
    </edge>
    <edge id=":gneJ29_12" function="internal">
        <lane id=":gneJ29_12_0" index="0" speed="13.89" length="5.04" shape="-49.95,189.89 -48.05,188.75 -45.25,188.35"/>
    </edge>
    <edge id=":gneJ29_3" function="internal">
        <lane id=":gneJ29_3_0" index="0" speed="13.89" length="5.00" shape="-45.25,191.65 -46.61,191.84 -47.57,192.43 -48.16,193.39 -48.35,194.75"/>
    </edge>
    <edge id=":gneJ29_4" function="internal">
        <lane id=":gneJ29_4_0" index="0" speed="13.89" length="9.50" shape="-45.25,191.65 -54.75,191.65"/>
    </edge>
    <edge id=":gneJ29_5" function="internal">
        <lane id=":gneJ29_5_0" index="0" speed="13.89" length="10.32" shape="-45.25,191.65 -48.05,191.25 -50.05,190.05 -51.25,188.05 -51.65,185.25"/>
    </edge>
    <edge id=":gneJ29_6" function="internal">
        <lane id=":gneJ29_6_0" index="0" speed="13.89" length="5.00" shape="-48.35,185.25 -48.16,186.61 -47.58,187.58 -46.61,188.16 -45.25,188.35"/>
    </edge>
    <edge id=":gneJ29_7" function="internal">
        <lane id=":gneJ29_7_0" index="0" speed="13.89" length="9.50" shape="-48.35,185.25 -48.35,194.75"/>
    </edge>
    <edge id=":gneJ29_8" function="internal">
        <lane id=":gneJ29_8_0" index="0" speed="13.89" length="5.28" shape="-48.35,185.25 -48.75,188.05 -49.95,190.05 -50.05,190.11"/>
    </edge>
    <edge id=":gneJ29_13" function="internal">
        <lane id=":gneJ29_13_0" index="0" speed="13.89" length="5.04" shape="-50.05,190.11 -51.95,191.25 -54.75,191.65"/>
    </edge>
    <edge id=":gneJ29_9" function="internal">
        <lane id=":gneJ29_9_0" index="0" speed="13.89" length="5.00" shape="-54.75,188.35 -53.39,188.16 -52.43,187.57 -51.84,186.61 -51.65,185.25"/>
    </edge>
    <edge id=":gneJ29_10" function="internal">
        <lane id=":gneJ29_10_0" index="0" speed="13.89" length="9.50" shape="-54.75,188.35 -45.25,188.35"/>
    </edge>
    <edge id=":gneJ29_11" function="internal">