<configuration>
	<input>
		<net-file value="mfp.net.xml" />
		<route-files value="mfp.rou.xml" />
		<gui-settings-file value="mfp.settings.xml" />
	</input>
	<time>
		<begin value="0" />
		<end value="10000" />
	</time>
</configuration>
