<nodes>
	<node id="1" x="-100.0" y="0.0" />
	<node id="2" x="+100.0" y="0.0" />
	<node id="3" x="+101.0" y="0.0" />
</nodes>
