<?xml version="1.0" encoding="UTF-8"?>

<!-- generated on Mon 25 Jun 2018 11:35:21 PM UTC by Netedit Version 0.30.0
<?xml version="1.0" encoding="UTF-8"?>

<configuration xmlns:xsi="http://www.w3.org/2001/XMLSchema-instance" xsi:noNamespaceSchemaLocation="http://sumo.dlr.de/xsd/netconvertConfiguration.xsd">

    <output>
        <output-file value="/home/veins/src/VeinsResearch/sumo_master/intersection_1/intersection_1.net.xml"/>
    </output>

    <processing>
        <no-turnarounds value="true"/>
        <offset.disable-normalization value="true"/>
    </processing>

</configuration>
-->

<net version="0.27" xmlns:xsi="http://www.w3.org/2001/XMLSchema-instance" xsi:noNamespaceSchemaLocation="http://sumo.dlr.de/xsd/net_file.xsd">

    <location netOffset="0.00,0.00" convBoundary="-100.00,-70.00,100.00,70.00" origBoundary="10000000000.00,10000000000.00,-10000000000.00,-10000000000.00" projParameter="!"/>

    <edge id=":cluster_gneJ1_gneJ13_gneJ15_gneJ4_0" function="internal">
        <lane id=":cluster_gneJ1_gneJ13_gneJ15_gneJ4_0_0" index="0" speed="13.89" length="7.85" shape="-1.65,8.05 -1.84,5.25 -2.42,3.25 -3.39,2.05 -4.75,1.65"/>
    </edge>
    <edge id=":cluster_gneJ1_gneJ13_gneJ15_gneJ4_1" function="internal">
        <lane id=":cluster_gneJ1_gneJ13_gneJ15_gneJ4_1_0" index="0" speed="13.89" length="16.10" shape="-1.65,8.05 -1.65,-8.05"/>
    </edge>
    <edge id=":cluster_gneJ1_gneJ13_gneJ15_gneJ4_2" function="internal">
        <lane id=":cluster_gneJ1_gneJ13_gneJ15_gneJ4_2_0" index="0" speed="13.89" length="13.09" shape="-1.65,8.05 -1.25,3.81 -0.05,0.77 1.95,-1.04 4.75,-1.65"/>
    </edge>
    <edge id=":cluster_gneJ1_gneJ13_gneJ15_gneJ4_3" function="internal">
        <lane id=":cluster_gneJ1_gneJ13_gneJ15_gneJ4_3_0" index="0" speed="13.89" length="5.00" shape="4.75,4.95 3.39,5.14 2.42,5.73 1.84,6.69 1.65,8.05"/>
    </edge>
    <edge id=":cluster_gneJ1_gneJ13_gneJ15_gneJ4_4" function="internal">
        <lane id=":cluster_gneJ1_gneJ13_gneJ15_gneJ4_4_0" index="0" speed="13.89" length="10.23" shape="4.75,4.95 1.85,4.43 -0.01,3.30 -1.86,2.17 -4.75,1.65"/>
    </edge>
    <edge id=":cluster_gneJ1_gneJ13_gneJ15_gneJ4_5" function="internal">
        <lane id=":cluster_gneJ1_gneJ13_gneJ15_gneJ4_5_0" index="0" speed="13.89" length="4.49" shape="4.75,1.65 1.95,1.04 0.75,-0.05"/>
    </edge>
    <edge id=":cluster_gneJ1_gneJ13_gneJ15_gneJ4_13" function="internal">
        <lane id=":cluster_gneJ1_gneJ13_gneJ15_gneJ4_13_0" index="0" speed="13.89" length="8.60" shape="0.75,-0.05 -0.05,-0.78 -1.25,-3.81 -1.65,-8.05"/>
    </edge>
    <edge id=":cluster_gneJ1_gneJ13_gneJ15_gneJ4_6" function="internal">
        <lane id=":cluster_gneJ1_gneJ13_gneJ15_gneJ4_6_0" index="0" speed="13.89" length="6.42" shape="1.65,-8.05 1.84,-6.69 2.42,-5.72 3.39,-5.14 4.75,-4.95"/>
        <lane id=":cluster_gneJ1_gneJ13_gneJ15_gneJ4_6_1" index="1" speed="13.89" length="6.42" shape="1.65,-8.05 1.84,-5.25 2.42,-3.25 3.39,-2.05 4.75,-1.65"/>
    </edge>
    <edge id=":cluster_gneJ1_gneJ13_gneJ15_gneJ4_8" function="internal">
        <lane id=":cluster_gneJ1_gneJ13_gneJ15_gneJ4_8_0" index="0" speed="13.89" length="16.10" shape="1.65,-8.05 1.65,8.05"/>
    </edge>
    <edge id=":cluster_gneJ1_gneJ13_gneJ15_gneJ4_9" function="internal">
        <lane id=":cluster_gneJ1_gneJ13_gneJ15_gneJ4_9_0" index="0" speed="13.89" length="13.09" shape="1.65,-8.05 1.25,-3.81 0.05,-0.77 -1.95,1.04 -4.75,1.65"/>
    </edge>
    <edge id=":cluster_gneJ1_gneJ13_gneJ15_gneJ4_10" function="internal">
        <lane id=":cluster_gneJ1_gneJ13_gneJ15_gneJ4_10_0" index="0" speed="13.89" length="5.00" shape="-4.75,-4.95 -3.39,-5.14 -2.42,-5.73 -1.84,-6.69 -1.65,-8.05"/>
    </edge>
    <edge id=":cluster_gneJ1_gneJ13_gneJ15_gneJ4_11" function="internal">
        <lane id=":cluster_gneJ1_gneJ13_gneJ15_gneJ4_11_0" index="0" speed="13.89" length="9.50" shape="-4.75,-1.65 4.75,-1.65"/>
    </edge>
    <edge id=":cluster_gneJ1_gneJ13_gneJ15_gneJ4_12" function="internal">
        <lane id=":cluster_gneJ1_gneJ13_gneJ15_gneJ4_12_0" index="0" speed="13.89" length="6.54" shape="-4.75,-1.65 -1.95,-1.04 0.05,0.78 0.41,1.68"/>
    </edge>
    <edge id=":cluster_gneJ1_gneJ13_gneJ15_gneJ4_14" function="internal">
        <lane id=":cluster_gneJ1_gneJ13_gneJ15_gneJ4_14_0" index="0" speed="13.89" length="6.55" shape="0.41,1.68 1.25,3.81 1.65,8.05"/>
    </edge>
    <edge id=":gneJ0_0" function="internal">
        <lane id=":gneJ0_0_0" index="0" speed="13.89" length="3.00" shape="-48.50,1.65 -51.50,1.65"/>
    </edge>
    <edge id=":gneJ0_1" function="internal">
        <lane id=":gneJ0_1_0" index="0" speed="13.89" length="3.73" shape="-51.50,-1.65 -48.50,-4.95"/>
        <lane id=":gneJ0_1_1" index="1" speed="13.89" length="3.73" shape="-51.50,-1.65 -48.50,-1.65"/>
    </edge>
    <edge id=":gneJ3_0" function="internal">
        <lane id=":gneJ3_0_0" index="0" speed="13.89" length="3.73" shape="51.50,1.65 48.50,4.95"/>
        <lane id=":gneJ3_0_1" index="1" speed="13.89" length="3.73" shape="51.50,1.65 48.50,1.65"/>
    </edge>
    <edge id=":gneJ3_2" function="internal">
        <lane id=":gneJ3_2_0" index="0" speed="13.89" length="4.46" shape="48.50,-4.95 51.50,-1.65"/>
    </edge>

    <edge id="-gneE0" from="cluster_gneJ1_gneJ13_gneJ15_gneJ4" to="gneJ0" priority="1">
        <lane id="-gneE0_0" index="0" speed="13.89" length="43.75" shape="-4.75,1.65 -48.50,1.65"/>
    </edge>
    <edge id="-gneE11" from="gneJ14" to="cluster_gneJ1_gneJ13_gneJ15_gneJ4" priority="1">
        <lane id="-gneE11_0" index="0" speed="13.89" length="61.95" shape="1.65,-70.00 1.65,-8.05"/>
    </edge>
    <edge id="-gneE12" from="gneJ16" to="cluster_gneJ1_gneJ13_gneJ15_gneJ4" priority="1">
        <lane id="-gneE12_0" index="0" speed="13.89" length="61.95" shape="-1.65,70.00 -1.65,8.05"/>
    </edge>
    <edge id="-gneE2" from="cluster_gneJ1_gneJ13_gneJ15_gneJ4" to="gneJ3" priority="1">
        <lane id="-gneE2_0" index="0" speed="13.89" length="43.75" shape="4.75,-4.95 48.50,-4.95"/>
        <lane id="-gneE2_1" index="1" speed="13.89" length="43.75" shape="4.75,-1.65 48.50,-1.65"/>
    </edge>
    <edge id="-gneE20" from="gneJ24" to="gneJ3" priority="1">
        <lane id="-gneE20_0" index="0" speed="13.89" length="48.50" shape="100.00,1.65 51.50,1.65"/>
    </edge>
    <edge id="-gneE21" from="gneJ25" to="gneJ0" priority="1">
        <lane id="-gneE21_0" index="0" speed="13.89" length="48.50" shape="-100.00,-1.65 -51.50,-1.65"/>
    </edge>
    <edge id="gneE0" from="gneJ0" to="cluster_gneJ1_gneJ13_gneJ15_gneJ4" priority="1">
        <lane id="gneE0_0" index="0" speed="13.89" length="43.75" shape="-48.50,-4.95 -4.75,-4.95"/>
        <lane id="gneE0_1" index="1" speed="13.89" length="43.75" shape="-48.50,-1.65 -4.75,-1.65"/>
    </edge>
    <edge id="gneE11" from="cluster_gneJ1_gneJ13_gneJ15_gneJ4" to="gneJ14" priority="1">
        <lane id="gneE11_0" index="0" speed="13.89" length="61.95" shape="-1.65,-8.05 -1.65,-70.00"/>
    </edge>
    <edge id="gneE12" from="cluster_gneJ1_gneJ13_gneJ15_gneJ4" to="gneJ16" priority="1">
        <lane id="gneE12_0" index="0" speed="13.89" length="61.95" shape="1.65,8.05 1.65,70.00"/>
    </edge>
    <edge id="gneE2" from="gneJ3" to="cluster_gneJ1_gneJ13_gneJ15_gneJ4" priority="1">
        <lane id="gneE2_0" index="0" speed="13.89" length="43.75" shape="48.50,4.95 4.75,4.95"/>
        <lane id="gneE2_1" index="1" speed="13.89" length="43.75" shape="48.50,1.65 4.75,1.65"/>
    </edge>
    <edge id="gneE20" from="gneJ3" to="gneJ24" priority="1">
        <lane id="gneE20_0" index="0" speed="13.89" length="48.50" shape="51.50,-1.65 100.00,-1.65"/>
    </edge>
    <edge id="gneE21" from="gneJ0" to="gneJ25" priority="1">
        <lane id="gneE21_0" index="0" speed="13.89" length="48.50" shape="-51.50,1.65 -100.00,1.65"/>
    </edge>

    <junction id="cluster_gneJ1_gneJ13_gneJ15_gneJ4" type="priority" x="0.00" y="0.00" incLanes="-gneE12_0 gneE2_0 gneE2_1 -gneE11_0 gneE0_0 gneE0_1" intLanes=":cluster_gneJ1_gneJ13_gneJ15_gneJ4_0_0 :cluster_gneJ1_gneJ13_gneJ15_gneJ4_1_0 :cluster_gneJ1_gneJ13_gneJ15_gneJ4_2_0 :cluster_gneJ1_gneJ13_gneJ15_gneJ4_3_0 :cluster_gneJ1_gneJ13_gneJ15_gneJ4_4_0 :cluster_gneJ1_gneJ13_gneJ15_gneJ4_13_0 :cluster_gneJ1_gneJ13_gneJ15_gneJ4_6_0 :cluster_gneJ1_gneJ13_gneJ15_gneJ4_6_1 :cluster_gneJ1_gneJ13_gneJ15_gneJ4_8_0 :cluster_gneJ1_gneJ13_gneJ15_gneJ4_9_0 :cluster_gneJ1_gneJ13_gneJ15_gneJ4_10_0 :cluster_gneJ1_gneJ13_gneJ15_gneJ4_11_0 :cluster_gneJ1_gneJ13_gneJ15_gneJ4_14_0" shape="-3.25,8.05 3.25,8.05 4.75,6.55 4.75,-6.55 3.25,-8.05 -3.25,-8.05 -4.75,-6.55 -4.75,3.25">
        <request index="0" response="0000000010000" foes="0001000010000" cont="0"/>
        <request index="1" response="1110000110000" foes="1111000110000" cont="0"/>
        <request index="2" response="1100111110000" foes="1100111110000" cont="0"/>
        <request index="3" response="0000000000000" foes="1000100000000" cont="0"/>
        <request index="4" response="0000000000000" foes="1001100000111" cont="0"/>
        <request index="5" response="0110000000000" foes="0111100000110" cont="1"/>
        <request index="6" response="0100000000000" foes="0100000000100" cont="0"/>
        <request index="7" response="0100000000000" foes="0100000000100" cont="0"/>
        <request index="8" response="1100000111000" foes="1100000111100" cont="0"/>
        <request index="9" response="1100000110011" foes="1100000110011" cont="0"/>
        <request index="10" response="0000000000000" foes="0000000100010" cont="0"/>
        <request index="11" response="0000000000000" foes="0001111100110" cont="0"/>
        <request index="12" response="0000000011000" foes="0001100011110" cont="1"/>
    </junction>
    <junction id="gneJ0" type="priority" x="-50.00" y="0.00" incLanes="-gneE0_0 -gneE21_0" intLanes=":gneJ0_0_0 :gneJ0_1_0 :gneJ0_1_1" shape="-48.50,3.25 -48.50,-6.55 -51.50,-3.25 -51.50,3.25">
        <request index="0" response="000" foes="000" cont="0"/>
        <request index="1" response="000" foes="000" cont="0"/>
        <request index="2" response="000" foes="000" cont="0"/>
    </junction>
    <junction id="gneJ14" type="dead_end" x="0.00" y="-70.00" incLanes="gneE11_0" intLanes="" shape="0.05,-70.00 -3.25,-70.00 -0.05,-70.00"/>
    <junction id="gneJ16" type="dead_end" x="0.00" y="70.00" incLanes="gneE12_0" intLanes="" shape="-0.05,70.00 3.25,70.00 0.05,70.00"/>
    <junction id="gneJ24" type="dead_end" x="100.00" y="0.00" incLanes="gneE20_0" intLanes="" shape="100.00,0.05 100.00,-3.25 100.00,-0.05"/>
    <junction id="gneJ25" type="dead_end" x="-100.00" y="0.00" incLanes="gneE21_0" intLanes="" shape="-100.00,-0.05 -100.00,3.25 -100.00,0.05"/>
    <junction id="gneJ3" type="priority" x="50.00" y="0.00" incLanes="-gneE20_0 -gneE2_0 -gneE2_1" intLanes=":gneJ3_0_0 :gneJ3_0_1 :gneJ3_2_0" shape="51.50,3.25 51.50,-3.25 48.50,-6.55 48.50,6.55">
        <request index="0" response="000" foes="000" cont="0"/>
        <request index="1" response="000" foes="000" cont="0"/>
        <request index="2" response="000" foes="000" cont="0"/>
    </junction>

    <junction id=":cluster_gneJ1_gneJ13_gneJ15_gneJ4_13_0" type="internal" x="0.75" y="-0.05" incLanes=":cluster_gneJ1_gneJ13_gneJ15_gneJ4_5_0 gneE0_0 gneE0_1" intLanes=":cluster_gneJ1_gneJ13_gneJ15_gneJ4_1_0 :cluster_gneJ1_gneJ13_gneJ15_gneJ4_2_0 :cluster_gneJ1_gneJ13_gneJ15_gneJ4_8_0 :cluster_gneJ1_gneJ13_gneJ15_gneJ4_9_0 :cluster_gneJ1_gneJ13_gneJ15_gneJ4_10_0 :cluster_gneJ1_gneJ13_gneJ15_gneJ4_11_0"/>
    <junction id=":cluster_gneJ1_gneJ13_gneJ15_gneJ4_14_0" type="internal" x="0.41" y="1.68" incLanes=":cluster_gneJ1_gneJ13_gneJ15_gneJ4_12_0 gneE2_0" intLanes=":cluster_gneJ1_gneJ13_gneJ15_gneJ4_1_0 :cluster_gneJ1_gneJ13_gneJ15_gneJ4_2_0 :cluster_gneJ1_gneJ13_gneJ15_gneJ4_3_0 :cluster_gneJ1_gneJ13_gneJ15_gneJ4_4_0 :cluster_gneJ1_gneJ13_gneJ15_gneJ4_8_0 :cluster_gneJ1_gneJ13_gneJ15_gneJ4_9_0"/>

    <connection from="-gneE0" to="gneE21" fromLane="0" toLane="0" via=":gneJ0_0_0" dir="s" state="M"/>
    <connection from="-gneE11" to="-gneE2" fromLane="0" toLane="0" via=":cluster_gneJ1_gneJ13_gneJ15_gneJ4_6_0" dir="r" state="m"/>
    <connection from="-gneE11" to="-gneE2" fromLane="0" toLane="1" via=":cluster_gneJ1_gneJ13_gneJ15_gneJ4_6_1" dir="r" state="m"/>
    <connection from="-gneE11" to="gneE12" fromLane="0" toLane="0" via=":cluster_gneJ1_gneJ13_gneJ15_gneJ4_8_0" dir="s" state="m"/>
    <connection from="-gneE11" to="-gneE0" fromLane="0" toLane="0" via=":cluster_gneJ1_gneJ13_gneJ15_gneJ4_9_0" dir="l" state="m"/>
    <connection from="-gneE12" to="-gneE0" fromLane="0" toLane="0" via=":cluster_gneJ1_gneJ13_gneJ15_gneJ4_0_0" dir="r" state="m"/>
    <connection from="-gneE12" to="gneE11" fromLane="0" toLane="0" via=":cluster_gneJ1_gneJ13_gneJ15_gneJ4_1_0" dir="s" state="m"/>
    <connection from="-gneE12" to="-gneE2" fromLane="0" toLane="1" via=":cluster_gneJ1_gneJ13_gneJ15_gneJ4_2_0" dir="l" state="m"/>
    <connection from="-gneE2" to="gneE20" fromLane="0" toLane="0" via=":gneJ3_2_0" dir="s" state="M"/>
    <connection from="-gneE20" to="gneE2" fromLane="0" toLane="0" via=":gneJ3_0_0" dir="s" state="M"/>
    <connection from="-gneE20" to="gneE2" fromLane="0" toLane="1" via=":gneJ3_0_1" dir="s" state="M"/>
    <connection from="-gneE21" to="gneE0" fromLane="0" toLane="0" via=":gneJ0_1_0" dir="s" state="M"/>
    <connection from="-gneE21" to="gneE0" fromLane="0" toLane="1" via=":gneJ0_1_1" dir="s" state="M"/>
    <connection from="gneE0" to="gneE11" fromLane="0" toLane="0" via=":cluster_gneJ1_gneJ13_gneJ15_gneJ4_10_0" dir="r" state="M"/>
    <connection from="gneE0" to="-gneE2" fromLane="1" toLane="1" via=":cluster_gneJ1_gneJ13_gneJ15_gneJ4_11_0" dir="s" state="M"/>
    <connection from="gneE0" to="gneE12" fromLane="1" toLane="0" via=":cluster_gneJ1_gneJ13_gneJ15_gneJ4_12_0" dir="l" state="m"/>
    <connection from="gneE2" to="gneE12" fromLane="0" toLane="0" via=":cluster_gneJ1_gneJ13_gneJ15_gneJ4_3_0" dir="r" state="M"/>
    <connection from="gneE2" to="-gneE0" fromLane="0" toLane="0" via=":cluster_gneJ1_gneJ13_gneJ15_gneJ4_4_0" dir="s" state="M"/>
    <connection from="gneE2" to="gneE11" fromLane="1" toLane="0" via=":cluster_gneJ1_gneJ13_gneJ15_gneJ4_5_0" dir="l" state="m"/>

    <connection from=":cluster_gneJ1_gneJ13_gneJ15_gneJ4_0" to="-gneE0" fromLane="0" toLane="0" dir="s" state="M"/>
    <connection from=":cluster_gneJ1_gneJ13_gneJ15_gneJ4_1" to="gneE11" fromLane="0" toLane="0" dir="s" state="M"/>
    <connection from=":cluster_gneJ1_gneJ13_gneJ15_gneJ4_2" to="-gneE2" fromLane="0" toLane="1" dir="s" state="M"/>
    <connection from=":cluster_gneJ1_gneJ13_gneJ15_gneJ4_3" to="gneE12" fromLane="0" toLane="0" dir="s" state="M"/>
    <connection from=":cluster_gneJ1_gneJ13_gneJ15_gneJ4_4" to="-gneE0" fromLane="0" toLane="0" dir="s" state="M"/>
    <connection from=":cluster_gneJ1_gneJ13_gneJ15_gneJ4_5" to="gneE11" fromLane="0" toLane="0" via=":cluster_gneJ1_gneJ13_gneJ15_gneJ4_13_0" dir="s" state="m"/>
    <connection from=":cluster_gneJ1_gneJ13_gneJ15_gneJ4_13" to="gneE11" fromLane="0" toLane="0" dir="s" state="M"/>
    <connection from=":cluster_gneJ1_gneJ13_gneJ15_gneJ4_6" to="-gneE2" fromLane="0" toLane="0" dir="s" state="M"/>
    <connection from=":cluster_gneJ1_gneJ13_gneJ15_gneJ4_6" to="-gneE2" fromLane="1" toLane="1" dir="s" state="M"/>
    <connection from=":cluster_gneJ1_gneJ13_gneJ15_gneJ4_8" to="gneE12" fromLane="0" toLane="0" dir="s" state="M"/>
    <connection from=":cluster_gneJ1_gneJ13_gneJ15_gneJ4_9" to="-gneE0" fromLane="0" toLane="0" dir="s" state="M"/>
    <connection from=":cluster_gneJ1_gneJ13_gneJ15_gneJ4_10" to="gneE11" fromLane="0" toLane="0" dir="s" state="M"/>
    <connection from=":cluster_gneJ1_gneJ13_gneJ15_gneJ4_11" to="-gneE2" fromLane="0" toLane="1" dir="s" state="M"/>
    <connection from=":cluster_gneJ1_gneJ13_gneJ15_gneJ4_12" to="gneE12" fromLane="0" toLane="0" via=":cluster_gneJ1_gneJ13_gneJ15_gneJ4_14_0" dir="s" state="m"/>
    <connection from=":cluster_gneJ1_gneJ13_gneJ15_gneJ4_14" to="gneE12" fromLane="0" toLane="0" dir="s" state="M"/>
    <connection from=":gneJ0_0" to="gneE21" fromLane="0" toLane="0" dir="s" state="M"/>
    <connection from=":gneJ0_1" to="gneE0" fromLane="0" toLane="0" dir="s" state="M"/>
    <connection from=":gneJ0_1" to="gneE0" fromLane="1" toLane="1" dir="s" state="M"/>
    <connection from=":gneJ3_0" to="gneE2" fromLane="0" toLane="0" dir="s" state="M"/>
    <connection from=":gneJ3_0" to="gneE2" fromLane="1" toLane="1" dir="s" state="M"/>
    <connection from=":gneJ3_2" to="gneE20" fromLane="0" toLane="0" dir="s" state="M"/>

</net>
