<?xml version="1.0" encoding="UTF-8"?>

<!-- generated on 12/17/18 21:25:11 by Eclipse SUMO netedit Version v1_0_1+0383-8ba62d898b
<configuration xmlns:xsi="http://www.w3.org/2001/XMLSchema-instance" xsi:noNamespaceSchemaLocation="http://sumo.dlr.de/xsd/netconvertConfiguration.xsd">

    <input>
        <sumo-net-file value="regions.net.xml"/>
    </input>

    <output>
        <output-file value="regions.net.xml"/>
    </output>

    <processing>
        <offset.disable-normalization value="true"/>
        <lefthand value="false"/>
    </processing>

    <junctions>
        <no-turnarounds value="true"/>
        <junctions.corner-detail value="5"/>
        <junctions.limit-turn-speed value="5.5"/>
        <rectangular-lane-cut value="false"/>
    </junctions>

    <pedestrian>
        <walkingareas value="false"/>
    </pedestrian>

</configuration>
-->

<net version="1.0" junctionCornerDetail="5" limitTurnSpeed="5.50" xmlns:xsi="http://www.w3.org/2001/XMLSchema-instance" xsi:noNamespaceSchemaLocation="http://sumo.dlr.de/xsd/net_file.xsd">

    <location netOffset="0.00,0.00" convBoundary="-140.00,10.00,390.00,357.95" origBoundary="-10000000000.00,-10000000000.00,10000000000.00,10000000000.00" projParameter="!"/>

    <edge id=":gneJ105_0" function="internal">
        <lane id=":gneJ105_0_0" index="0" speed="6.51" length="9.03" shape="178.40,67.20 178.05,64.75 177.00,63.00 175.25,61.95 172.80,61.60"/>
    </edge>
    <edge id=":gneJ105_1" function="internal">
        <lane id=":gneJ105_1_0" index="0" allow="custom1" speed="13.89" length="14.40" shape="178.40,67.20 178.40,52.80"/>
    </edge>
    <edge id=":gneJ105_2" function="internal">
        <lane id=":gneJ105_2_0" index="0" speed="8.00" length="5.93" shape="178.40,67.20 178.95,63.35 180.00,61.60"/>
    </edge>
    <edge id=":gneJ105_12" function="internal">
        <lane id=":gneJ105_12_0" index="0" speed="8.00" length="8.26" shape="180.00,61.60 180.60,60.60 183.35,58.95 187.20,58.40"/>
    </edge>
    <edge id=":gneJ105_3" function="internal">
        <lane id=":gneJ105_3_0" index="0" speed="6.51" length="9.03" shape="187.20,61.60 184.75,61.95 183.00,63.00 181.95,64.75 181.60,67.20"/>
    </edge>
    <edge id=":gneJ105_4" function="internal">
        <lane id=":gneJ105_4_0" index="0" speed="13.89" length="14.40" shape="187.20,61.60 172.80,61.60"/>
    </edge>
    <edge id=":gneJ105_5" function="internal">
        <lane id=":gneJ105_5_0" index="0" allow="custom1" speed="8.00" length="14.19" shape="187.20,61.60 183.35,61.05 180.60,59.40 178.95,56.65 178.40,52.80"/>
    </edge>
    <edge id=":gneJ105_6" function="internal">
        <lane id=":gneJ105_6_0" index="0" speed="6.51" length="9.03" shape="181.60,52.80 181.95,55.25 183.00,57.00 184.75,58.05 187.20,58.40"/>
    </edge>
    <edge id=":gneJ105_7" function="internal">
        <lane id=":gneJ105_7_0" index="0" speed="13.89" length="14.40" shape="181.60,52.80 181.60,67.20"/>
    </edge>
    <edge id=":gneJ105_8" function="internal">
        <lane id=":gneJ105_8_0" index="0" speed="8.00" length="5.93" shape="181.60,52.80 181.05,56.65 180.00,58.40"/>
    </edge>
    <edge id=":gneJ105_13" function="internal">
        <lane id=":gneJ105_13_0" index="0" speed="8.00" length="8.26" shape="180.00,58.40 179.40,59.40 176.65,61.05 172.80,61.60"/>
    </edge>
    <edge id=":gneJ105_9" function="internal">
        <lane id=":gneJ105_9_0" index="0" allow="custom1" speed="6.51" length="9.03" shape="172.80,58.40 175.25,58.05 177.00,57.00 178.05,55.25 178.40,52.80"/>
    </edge>
    <edge id=":gneJ105_10" function="internal">
        <lane id=":gneJ105_10_0" index="0" speed="13.89" length="14.40" shape="172.80,58.40 187.20,58.40"/>
    </edge>
    <edge id=":gneJ105_11" function="internal">
        <lane id=":gneJ105_11_0" index="0" speed="8.00" length="14.19" shape="172.80,58.40 176.65,58.95 179.40,60.60 181.05,63.35 181.60,67.20"/>
    </edge>
    <edge id=":gneJ106_0" function="internal">
        <lane id=":gneJ106_0_0" index="0" speed="13.89" length="8.60" shape="214.00,168.00 211.54,168.50 210.00,169.60 208.46,170.70 206.00,171.20"/>
        <lane id=":gneJ106_0_1" index="1" speed="13.89" length="8.60" shape="214.00,164.80 211.54,165.30 210.00,166.40 208.46,167.50 206.00,168.00"/>
        <lane id=":gneJ106_0_2" index="2" speed="13.89" length="8.60" shape="214.00,161.60 211.54,162.10 210.00,163.20 208.46,164.30 206.00,164.80"/>
        <lane id=":gneJ106_0_3" index="3" speed="13.89" length="8.60" shape="214.00,161.60 206.00,161.60"/>
    </edge>
    <edge id=":gneJ112_0" function="internal">
        <lane id=":gneJ112_0_0" index="0" speed="8.10" length="14.57" shape="278.40,180.00 278.05,174.75 277.00,171.00 275.25,168.75 272.80,168.00"/>
    </edge>
    <edge id=":gneJ112_1" function="internal">
        <lane id=":gneJ112_1_0" index="0" speed="13.89" length="24.00" shape="278.40,180.00 278.40,156.00"/>
    </edge>
    <edge id=":gneJ112_2" function="internal">
        <lane id=":gneJ112_2_0" index="0" speed="6.51" length="9.03" shape="287.20,174.40 284.75,174.75 283.00,175.80 281.95,177.55 281.60,180.00"/>
    </edge>
    <edge id=":gneJ112_3" function="internal">
        <lane id=":gneJ112_3_0" index="0" speed="13.89" length="14.86" shape="287.20,171.20 282.88,170.70 280.00,169.60 277.12,168.50 272.80,168.00"/>
        <lane id=":gneJ112_3_1" index="1" speed="13.89" length="14.86" shape="287.20,168.00 282.88,167.50 280.00,166.40 277.12,165.30 272.80,164.80"/>
        <lane id=":gneJ112_3_2" index="2" speed="13.89" length="14.86" shape="287.20,164.80 282.88,164.30 280.00,163.20 277.12,162.10 272.80,161.60"/>
    </edge>
    <edge id=":gneJ112_6" function="internal">
        <lane id=":gneJ112_6_0" index="0" speed="7.33" length="11.73" shape="287.20,161.60 283.35,161.25 280.60,160.20 278.95,158.45 278.40,156.00"/>
    </edge>
    <edge id=":gneJ112_7" function="internal">
        <lane id=":gneJ112_7_0" index="0" speed="13.89" length="24.00" shape="281.60,156.00 281.60,180.00"/>
    </edge>
    <edge id=":gneJ112_8" function="internal">
        <lane id=":gneJ112_8_0" index="0" speed="7.33" length="4.04" shape="281.60,156.00 281.05,158.45 280.00,159.56"/>
    </edge>
    <edge id=":gneJ112_9" function="internal">
        <lane id=":gneJ112_9_0" index="0" speed="7.33" length="7.68" shape="280.00,159.56 279.40,160.20 276.65,161.25 272.80,161.60"/>
    </edge>
    <edge id=":gneJ113_0" function="internal">
        <lane id=":gneJ113_0_0" index="0" speed="13.89" length="9.06" shape="246.00,132.00 248.69,131.00 250.00,128.80 251.31,126.60 254.00,125.60"/>
        <lane id=":gneJ113_0_1" index="1" speed="13.89" length="9.06" shape="246.00,132.00 248.46,131.50 250.00,130.40 251.54,129.30 254.00,128.80"/>
        <lane id=":gneJ113_0_2" index="2" speed="13.89" length="9.06" shape="246.00,135.20 248.46,134.70 250.00,133.60 251.54,132.50 254.00,132.00"/>
        <lane id=":gneJ113_0_3" index="3" speed="13.89" length="9.06" shape="246.00,138.40 248.46,137.90 250.00,136.80 251.54,135.70 254.00,135.20"/>
        <lane id=":gneJ113_0_4" index="4" speed="13.89" length="9.06" shape="246.00,138.40 254.00,138.40"/>
    </edge>
    <edge id=":gneJ114_0" function="internal">
        <lane id=":gneJ114_0_0" index="0" speed="13.89" length="24.00" shape="278.40,144.00 278.40,120.00"/>
    </edge>
    <edge id=":gneJ114_1" function="internal">
        <lane id=":gneJ114_1_0" index="0" speed="7.33" length="4.04" shape="278.40,144.00 278.95,141.55 280.00,140.44"/>
    </edge>
    <edge id=":gneJ114_9" function="internal">
        <lane id=":gneJ114_9_0" index="0" speed="7.33" length="7.68" shape="280.00,140.44 280.60,139.80 283.35,138.75 287.20,138.40"/>
    </edge>
    <edge id=":gneJ114_2" function="internal">
        <lane id=":gneJ114_2_0" index="0" speed="8.10" length="14.57" shape="281.60,120.00 281.95,125.25 283.00,129.00 284.75,131.25 287.20,132.00"/>
    </edge>
    <edge id=":gneJ114_3" function="internal">
        <lane id=":gneJ114_3_0" index="0" speed="13.89" length="24.00" shape="281.60,120.00 281.60,144.00"/>
    </edge>
    <edge id=":gneJ114_4" function="internal">
        <lane id=":gneJ114_4_0" index="0" speed="6.51" length="9.03" shape="272.80,125.60 275.25,125.25 277.00,124.20 278.05,122.45 278.40,120.00"/>
    </edge>
    <edge id=":gneJ114_5" function="internal">
        <lane id=":gneJ114_5_0" index="0" speed="13.89" length="14.86" shape="272.80,128.80 277.12,129.30 280.00,130.40 282.88,131.50 287.20,132.00"/>
        <lane id=":gneJ114_5_1" index="1" speed="13.89" length="14.86" shape="272.80,132.00 277.12,132.50 280.00,133.60 282.88,134.70 287.20,135.20"/>
        <lane id=":gneJ114_5_2" index="2" speed="13.89" length="14.86" shape="272.80,135.20 277.12,135.70 280.00,136.80 282.88,137.90 287.20,138.40"/>
    </edge>
    <edge id=":gneJ114_8" function="internal">
        <lane id=":gneJ114_8_0" index="0" speed="7.33" length="11.73" shape="272.80,138.40 276.65,138.75 279.40,139.80 281.05,141.55 281.60,144.00"/>
    </edge>
    <edge id=":gneJ115_0" function="internal">
        <lane id=":gneJ115_0_0" index="0" speed="6.51" length="9.03" shape="278.40,67.20 278.05,64.75 277.00,63.00 275.25,61.95 272.80,61.60"/>
    </edge>
    <edge id=":gneJ115_1" function="internal">
        <lane id=":gneJ115_1_0" index="0" speed="13.89" length="14.40" shape="278.40,67.20 278.40,52.80"/>
    </edge>
    <edge id=":gneJ115_2" function="internal">
        <lane id=":gneJ115_2_0" index="0" allow="custom1" speed="8.00" length="5.93" shape="278.40,67.20 278.95,63.35 280.00,61.60"/>
    </edge>
    <edge id=":gneJ115_12" function="internal">
        <lane id=":gneJ115_12_0" index="0" speed="8.00" length="8.26" shape="280.00,61.60 280.60,60.60 283.35,58.95 287.20,58.40"/>
    </edge>
    <edge id=":gneJ115_3" function="internal">
        <lane id=":gneJ115_3_0" index="0" speed="6.51" length="9.03" shape="287.20,61.60 284.75,61.95 283.00,63.00 281.95,64.75 281.60,67.20"/>
    </edge>
    <edge id=":gneJ115_4" function="internal">
        <lane id=":gneJ115_4_0" index="0" speed="13.89" length="14.40" shape="287.20,61.60 272.80,61.60"/>
    </edge>
    <edge id=":gneJ115_5" function="internal">
        <lane id=":gneJ115_5_0" index="0" speed="8.00" length="14.19" shape="287.20,61.60 283.35,61.05 280.60,59.40 278.95,56.65 278.40,52.80"/>
    </edge>
    <edge id=":gneJ115_6" function="internal">
        <lane id=":gneJ115_6_0" index="0" allow="custom1" speed="6.51" length="9.03" shape="281.60,52.80 281.95,55.25 283.00,57.00 284.75,58.05 287.20,58.40"/>
    </edge>
    <edge id=":gneJ115_7" function="internal">
        <lane id=":gneJ115_7_0" index="0" speed="13.89" length="14.40" shape="281.60,52.80 281.60,67.20"/>
    </edge>
    <edge id=":gneJ115_8" function="internal">
        <lane id=":gneJ115_8_0" index="0" speed="8.00" length="5.93" shape="281.60,52.80 281.05,56.65 280.00,58.40"/>
    </edge>
    <edge id=":gneJ115_13" function="internal">
        <lane id=":gneJ115_13_0" index="0" speed="8.00" length="8.26" shape="280.00,58.40 279.40,59.40 276.65,61.05 272.80,61.60"/>
    </edge>
    <edge id=":gneJ115_9" function="internal">
        <lane id=":gneJ115_9_0" index="0" speed="6.51" length="9.03" shape="272.80,58.40 275.25,58.05 277.00,57.00 278.05,55.25 278.40,52.80"/>
    </edge>
    <edge id=":gneJ115_10" function="internal">
        <lane id=":gneJ115_10_0" index="0" allow="custom1" speed="13.89" length="14.40" shape="272.80,58.40 287.20,58.40"/>
    </edge>
    <edge id=":gneJ115_11" function="internal">
        <lane id=":gneJ115_11_0" index="0" speed="8.00" length="14.19" shape="272.80,58.40 276.65,58.95 279.40,60.60 281.05,63.35 281.60,67.20"/>
    </edge>
    <edge id=":gneJ118_0" function="internal">
        <lane id=":gneJ118_0_0" index="0" speed="13.89" length="8.20" shape="154.00,168.00 151.54,168.50 150.00,169.60 148.46,170.70 146.00,171.20"/>
        <lane id=":gneJ118_0_1" index="1" speed="13.89" length="8.20" shape="154.00,168.00 146.00,168.00"/>
        <lane id=":gneJ118_0_2" index="2" speed="13.89" length="8.20" shape="154.00,164.80 146.00,164.80"/>
        <lane id=":gneJ118_0_3" index="3" speed="13.89" length="8.20" shape="154.00,161.60 146.00,161.60"/>
    </edge>
    <edge id=":gneJ119_0" function="internal">
        <lane id=":gneJ119_0_0" index="0" speed="7.33" length="11.73" shape="118.40,176.80 118.05,172.95 117.00,170.20 115.25,168.55 112.80,168.00"/>
    </edge>
    <edge id=":gneJ119_1" function="internal">
        <lane id=":gneJ119_1_0" index="0" speed="8.10" length="14.57" shape="118.40,176.80 118.05,171.55 117.00,167.80 115.25,165.55 112.80,164.80"/>
    </edge>
    <edge id=":gneJ119_2" function="internal">
        <lane id=":gneJ119_2_0" index="0" speed="8.83" length="17.50" shape="118.40,176.80 118.05,170.15 117.00,165.40 115.25,162.55 112.80,161.60"/>
    </edge>
    <edge id=":gneJ119_3" function="internal">
        <lane id=":gneJ119_3_0" index="0" allow="custom1" speed="6.51" length="9.03" shape="127.20,171.20 124.75,171.55 123.00,172.60 121.95,174.35 121.60,176.80"/>
    </edge>
    <edge id=":gneJ119_4" function="internal">
        <lane id=":gneJ119_4_0" index="0" speed="13.89" length="14.40" shape="127.20,168.00 112.80,168.00"/>
        <lane id=":gneJ119_4_1" index="1" speed="13.89" length="14.40" shape="127.20,164.80 112.80,164.80"/>
        <lane id=":gneJ119_4_2" index="2" speed="13.89" length="14.40" shape="127.20,161.60 112.80,161.60"/>
    </edge>
    <edge id=":gneJ123_0" function="internal">
        <lane id=":gneJ123_0_0" index="0" speed="7.12" length="3.01" shape="86.76,210.71 86.03,211.20 85.47,211.47 84.86,211.58 83.97,211.60"/>
    </edge>
    <edge id=":gneJ123_1" function="internal">
        <lane id=":gneJ123_1_0" index="0" speed="4.45" length="1.00" shape="83.97,208.40 84.27,208.39 84.47,208.36 84.66,208.27 84.90,208.10"/>
    </edge>
    <edge id=":gneJ124_0" function="internal">
        <lane id=":gneJ124_0_0" index="0" speed="6.39" length="4.57" shape="121.60,183.35 121.47,184.52 121.10,185.56 120.47,186.48 119.59,187.26"/>
    </edge>
    <edge id=":gneJ124_1" function="internal">
        <lane id=":gneJ124_1_0" index="0" speed="4.07" length="1.52" shape="117.73,184.66 118.02,184.39 118.23,184.09 118.36,183.74 118.40,183.35"/>
    </edge>
    <edge id=":gneJ128_0" function="internal">
        <lane id=":gneJ128_0_0" index="0" speed="13.89" length="14.40" shape="278.40,97.20 278.40,82.80"/>
    </edge>
    <edge id=":gneJ128_1" function="internal">
        <lane id=":gneJ128_1_0" index="0" allow="custom1" speed="8.00" length="5.93" shape="278.40,97.20 278.95,93.35 280.00,91.60"/>
    </edge>
    <edge id=":gneJ128_6" function="internal">
        <lane id=":gneJ128_6_0" index="0" speed="8.00" length="8.26" shape="280.00,91.60 280.60,90.60 283.35,88.95 287.20,88.40"/>
    </edge>
    <edge id=":gneJ128_2" function="internal">
        <lane id=":gneJ128_2_0" index="0" speed="6.51" length="9.03" shape="287.20,91.60 284.75,91.95 283.00,93.00 281.95,94.75 281.60,97.20"/>
    </edge>
    <edge id=":gneJ128_3" function="internal">
        <lane id=":gneJ128_3_0" index="0" speed="8.00" length="14.19" shape="287.20,91.60 283.35,91.05 280.60,89.40 278.95,86.65 278.40,82.80"/>
    </edge>
    <edge id=":gneJ128_4" function="internal">
        <lane id=":gneJ128_4_0" index="0" allow="custom1" speed="6.51" length="9.03" shape="281.60,82.80 281.95,85.25 283.00,87.00 284.75,88.05 287.20,88.40"/>
    </edge>
    <edge id=":gneJ128_5" function="internal">
        <lane id=":gneJ128_5_0" index="0" speed="13.89" length="14.40" shape="281.60,82.80 281.60,97.20"/>
    </edge>
    <edge id=":gneJ129_0" function="internal">
        <lane id=":gneJ129_0_0" index="0" speed="13.89" length="14.40" shape="278.40,207.20 278.40,192.80"/>
    </edge>
    <edge id=":gneJ129_1" function="internal">
        <lane id=":gneJ129_1_0" index="0" allow="custom1" speed="8.00" length="5.93" shape="278.40,207.20 278.95,203.35 280.00,201.60"/>
    </edge>
    <edge id=":gneJ129_6" function="internal">
        <lane id=":gneJ129_6_0" index="0" speed="8.00" length="8.26" shape="280.00,201.60 280.60,200.60 283.35,198.95 287.20,198.40"/>
    </edge>
    <edge id=":gneJ129_2" function="internal">
        <lane id=":gneJ129_2_0" index="0" speed="6.51" length="9.03" shape="287.20,201.60 284.75,201.95 283.00,203.00 281.95,204.75 281.60,207.20"/>
    </edge>
    <edge id=":gneJ129_3" function="internal">
        <lane id=":gneJ129_3_0" index="0" speed="8.00" length="14.19" shape="287.20,201.60 283.35,201.05 280.60,199.40 278.95,196.65 278.40,192.80"/>
    </edge>
    <edge id=":gneJ129_4" function="internal">
        <lane id=":gneJ129_4_0" index="0" allow="custom1" speed="6.51" length="9.03" shape="281.60,192.80 281.95,195.25 283.00,197.00 284.75,198.05 287.20,198.40"/>
    </edge>
    <edge id=":gneJ129_5" function="internal">
        <lane id=":gneJ129_5_0" index="0" speed="13.89" length="14.40" shape="281.60,192.80 281.60,207.20"/>
    </edge>
    <edge id=":gneJ131_0" function="internal">
        <lane id=":gneJ131_0_0" index="0" speed="13.89" length="9.06" shape="314.00,168.00 311.31,169.00 310.00,171.20 308.69,173.40 306.00,174.40"/>
        <lane id=":gneJ131_0_1" index="1" speed="13.89" length="9.06" shape="314.00,168.00 311.54,168.50 310.00,169.60 308.46,170.70 306.00,171.20"/>
        <lane id=":gneJ131_0_2" index="2" speed="13.89" length="9.06" shape="314.00,164.80 311.54,165.30 310.00,166.40 308.46,167.50 306.00,168.00"/>
        <lane id=":gneJ131_0_3" index="3" speed="13.89" length="9.06" shape="314.00,161.60 311.54,162.10 310.00,163.20 308.46,164.30 306.00,164.80"/>
        <lane id=":gneJ131_0_4" index="4" speed="13.89" length="9.06" shape="314.00,161.60 306.00,161.60"/>
    </edge>
    <edge id=":gneJ132_0" function="internal">
        <lane id=":gneJ132_0_0" index="0" speed="13.89" length="8.20" shape="296.00,132.00 298.46,131.50 300.00,130.40 301.54,129.30 304.00,128.80"/>
        <lane id=":gneJ132_0_1" index="1" speed="13.89" length="8.20" shape="296.00,132.00 304.00,132.00"/>
        <lane id=":gneJ132_0_2" index="2" speed="13.89" length="8.20" shape="296.00,135.20 304.00,135.20"/>
        <lane id=":gneJ132_0_3" index="3" speed="13.89" length="8.20" shape="296.00,138.40 304.00,138.40"/>
    </edge>
    <edge id=":gneJ133_0" function="internal">
        <lane id=":gneJ133_0_0" index="0" speed="7.33" length="11.73" shape="331.60,123.20 331.95,127.05 333.00,129.80 334.75,131.45 337.20,132.00"/>
    </edge>
    <edge id=":gneJ133_1" function="internal">
        <lane id=":gneJ133_1_0" index="0" allow="custom1" speed="6.51" length="9.03" shape="322.80,128.80 325.25,128.45 327.00,127.40 328.05,125.65 328.40,123.20"/>
    </edge>
    <edge id=":gneJ133_2" function="internal">
        <lane id=":gneJ133_2_0" index="0" speed="13.89" length="14.40" shape="322.80,132.00 337.20,132.00"/>
        <lane id=":gneJ133_2_1" index="1" speed="13.89" length="14.40" shape="322.80,135.20 337.20,135.20"/>
        <lane id=":gneJ133_2_2" index="2" speed="13.89" length="14.40" shape="322.80,138.40 337.20,138.40"/>
    </edge>
    <edge id=":gneJ135_0" function="internal">
        <lane id=":gneJ135_0_0" index="0" speed="7.33" length="11.73" shape="328.40,176.80 328.05,172.95 327.00,170.20 325.25,168.55 322.80,168.00"/>
    </edge>
    <edge id=":gneJ135_1" function="internal">
        <lane id=":gneJ135_1_0" index="0" allow="custom1" speed="6.51" length="9.03" shape="337.20,171.20 334.75,171.55 333.00,172.60 331.95,174.35 331.60,176.80"/>
    </edge>
    <edge id=":gneJ135_2" function="internal">
        <lane id=":gneJ135_2_0" index="0" speed="13.89" length="14.40" shape="337.20,168.00 322.80,168.00"/>
        <lane id=":gneJ135_2_1" index="1" speed="13.89" length="14.40" shape="337.20,164.80 322.80,164.80"/>
        <lane id=":gneJ135_2_2" index="2" speed="13.89" length="14.40" shape="337.20,161.60 322.80,161.60"/>
    </edge>
    <edge id=":gneJ136_0" function="internal">
        <lane id=":gneJ136_0_0" index="0" speed="13.89" length="8.20" shape="364.00,168.00 361.54,168.50 360.00,169.60 358.46,170.70 356.00,171.20"/>
        <lane id=":gneJ136_0_1" index="1" speed="13.89" length="8.20" shape="364.00,168.00 356.00,168.00"/>
        <lane id=":gneJ136_0_2" index="2" speed="13.89" length="8.20" shape="364.00,164.80 356.00,164.80"/>
        <lane id=":gneJ136_0_3" index="3" speed="13.89" length="8.20" shape="364.00,161.60 356.00,161.60"/>
    </edge>
    <edge id=":gneJ137_0" function="internal">
        <lane id=":gneJ137_0_0" index="0" speed="6.15" length="6.26" shape="331.60,187.59 331.38,189.23 330.73,190.55 329.64,191.54 328.12,192.20"/>
    </edge>
    <edge id=":gneJ137_1" function="internal">
        <lane id=":gneJ137_1_0" index="0" speed="3.94" length="2.09" shape="327.24,189.12 327.75,188.90 328.11,188.57 328.33,188.13 328.40,187.59"/>
    </edge>
    <edge id=":gneJ138_0" function="internal">
        <lane id=":gneJ138_0_0" index="0" speed="13.89" length="1.34" shape="295.87,201.42 295.49,201.52 295.22,201.58 294.95,201.60 294.55,201.60"/>
    </edge>
    <edge id=":gneJ138_1" function="internal">
        <lane id=":gneJ138_1_0" index="0" speed="13.89" length="0.45" shape="294.55,198.40 294.68,198.40 294.77,198.39 294.86,198.37 294.99,198.34"/>
    </edge>
    <edge id=":gneJ140_0" function="internal">
        <lane id=":gneJ140_0_0" index="0" speed="13.89" length="14.40" shape="278.40,297.20 278.40,282.80"/>
    </edge>
    <edge id=":gneJ140_1" function="internal">
        <lane id=":gneJ140_1_0" index="0" speed="8.00" length="5.93" shape="278.40,297.20 278.95,293.35 280.00,291.60"/>
    </edge>
    <edge id=":gneJ140_6" function="internal">
        <lane id=":gneJ140_6_0" index="0" speed="8.00" length="8.26" shape="280.00,291.60 280.60,290.60 283.35,288.95 287.20,288.40"/>
    </edge>
    <edge id=":gneJ140_2" function="internal">
        <lane id=":gneJ140_2_0" index="0" speed="6.51" length="9.03" shape="287.20,291.60 284.75,291.95 283.00,293.00 281.95,294.75 281.60,297.20"/>
    </edge>
    <edge id=":gneJ140_3" function="internal">
        <lane id=":gneJ140_3_0" index="0" speed="8.00" length="14.19" shape="287.20,291.60 283.35,291.05 280.60,289.40 278.95,286.65 278.40,282.80"/>
    </edge>
    <edge id=":gneJ140_4" function="internal">
        <lane id=":gneJ140_4_0" index="0" speed="6.51" length="9.03" shape="281.60,282.80 281.95,285.25 283.00,287.00 284.75,288.05 287.20,288.40"/>
    </edge>
    <edge id=":gneJ140_5" function="internal">
        <lane id=":gneJ140_5_0" index="0" speed="13.89" length="14.40" shape="281.60,282.80 281.60,297.20"/>
    </edge>
    <edge id=":gneJ141_0" function="internal">
        <lane id=":gneJ141_0_0" index="0" speed="7.52" length="10.27" shape="310.23,298.15 309.24,295.28 307.78,293.24 305.85,292.01 303.45,291.60"/>
    </edge>
    <edge id=":gneJ141_1" function="internal">
        <lane id=":gneJ141_1_0" index="0" speed="13.89" length="17.11" shape="310.23,298.15 309.73,294.11 309.86,289.64 310.55,285.20 311.71,281.29"/>
    </edge>
    <edge id=":gneJ141_2" function="internal">
        <lane id=":gneJ141_2_0" index="0" speed="7.79" length="15.66" shape="310.23,298.15 309.92,293.88 311.23,290.83 314.17,288.98 318.72,288.35"/>
    </edge>
    <edge id=":gneJ141_3" function="internal">
        <lane id=":gneJ141_3_0" index="0" speed="6.25" length="9.63" shape="318.74,291.55 315.88,291.93 314.02,293.04 313.18,294.87 313.35,297.43"/>
    </edge>
    <edge id=":gneJ141_4" function="internal">
        <lane id=":gneJ141_4_0" index="0" speed="13.89" length="15.29" shape="318.74,291.55 303.45,291.60"/>
    </edge>
    <edge id=":gneJ141_5" function="internal">
        <lane id=":gneJ141_5_0" index="0" speed="7.49" length="6.31" shape="318.74,291.55 314.14,290.93 312.78,289.97"/>
    </edge>
    <edge id=":gneJ141_12" function="internal">
        <lane id=":gneJ141_12_0" index="0" speed="7.49" length="9.60" shape="312.78,289.97 311.43,289.02 310.62,285.80 311.71,281.29"/>
    </edge>
    <edge id=":gneJ141_6" function="internal">
        <lane id=":gneJ141_6_0" index="0" speed="5.84" length="9.13" shape="314.69,282.46 314.06,285.05 314.53,286.90 316.08,287.99 318.72,288.35"/>
    </edge>
    <edge id=":gneJ141_7" function="internal">
        <lane id=":gneJ141_7_0" index="0" speed="13.89" length="15.23" shape="314.69,282.46 313.55,286.08 312.91,289.87 312.83,293.69 313.35,297.43"/>
    </edge>
    <edge id=":gneJ141_8" function="internal">
        <lane id=":gneJ141_8_0" index="0" speed="9.77" length="15.45" shape="314.69,282.46 312.64,286.46 310.08,289.32 307.02,291.03 303.45,291.60"/>
    </edge>
    <edge id=":gneJ141_9" function="internal">
        <lane id=":gneJ141_9_0" index="0" speed="8.53" length="11.60" shape="303.45,288.40 306.01,287.96 308.25,286.62 310.14,284.40 311.71,281.29"/>
    </edge>
    <edge id=":gneJ141_10" function="internal">
        <lane id=":gneJ141_10_0" index="0" speed="13.89" length="15.27" shape="303.45,288.40 318.72,288.35"/>
    </edge>
    <edge id=":gneJ141_11" function="internal">
        <lane id=":gneJ141_11_0" index="0" speed="8.87" length="5.58" shape="303.45,288.40 307.00,288.96 308.71,289.98"/>
    </edge>
    <edge id=":gneJ141_13" function="internal">
        <lane id=":gneJ141_13_0" index="0" speed="8.87" length="9.04" shape="308.71,289.98 309.84,290.66 311.95,293.48 313.35,297.43"/>
    </edge>
    <edge id=":gneJ142_0" function="internal">
        <lane id=":gneJ142_0_0" index="0" speed="10.39" length="12.55" shape="362.42,297.12 360.11,294.58 357.57,292.77 354.79,291.70 351.79,291.35"/>
    </edge>
    <edge id=":gneJ142_1" function="internal">
        <lane id=":gneJ142_1_0" index="0" speed="13.89" length="17.51" shape="362.42,297.12 360.37,293.54 358.81,289.20 357.87,284.66 357.64,280.52"/>
    </edge>
    <edge id=":gneJ142_2" function="internal">
        <lane id=":gneJ142_2_0" index="0" speed="7.82" length="15.99" shape="362.42,297.12 360.39,293.31 360.40,289.96 362.46,287.06 366.56,284.62"/>
    </edge>
    <edge id=":gneJ142_3" function="internal">
        <lane id=":gneJ142_3_0" index="0" speed="6.28" length="9.87" shape="367.83,287.56 365.21,289.09 363.86,290.87 363.78,292.90 364.97,295.18"/>
    </edge>
    <edge id=":gneJ142_4" function="internal">
        <lane id=":gneJ142_4_0" index="0" speed="13.89" length="16.57" shape="367.83,287.56 364.09,288.98 359.96,290.19 355.76,291.03 351.79,291.35"/>
    </edge>
    <edge id=":gneJ142_5" function="internal">
        <lane id=":gneJ142_5_0" index="0" speed="7.44" length="7.22" shape="367.83,287.56 363.17,288.86 360.85,288.33"/>
    </edge>
    <edge id=":gneJ142_12" function="internal">
        <lane id=":gneJ142_12_0" index="0" speed="7.44" length="9.12" shape="360.85,288.33 359.92,288.12 358.08,285.34 357.64,280.52"/>
    </edge>
    <edge id=":gneJ142_6" function="internal">
        <lane id=":gneJ142_6_0" index="0" speed="5.75" length="9.18" shape="360.84,280.67 361.08,283.37 362.12,284.93 363.94,285.35 366.56,284.62"/>
    </edge>
    <edge id=":gneJ142_7" function="internal">
        <lane id=":gneJ142_7_0" index="0" speed="13.89" length="15.36" shape="360.84,280.67 360.96,284.48 361.69,288.30 363.02,291.94 364.97,295.18"/>
    </edge>
    <edge id=":gneJ142_8" function="internal">
        <lane id=":gneJ142_8_0" index="0" speed="8.56" length="15.74" shape="360.84,280.67 360.09,285.32 358.33,288.66 355.57,290.67 351.79,291.35"/>
    </edge>
    <edge id=":gneJ142_9" function="internal">
        <lane id=":gneJ142_9_0" index="0" speed="7.18" length="10.78" shape="351.77,288.15 354.21,287.66 356.00,286.23 357.14,283.85 357.64,280.52"/>
    </edge>
    <edge id=":gneJ142_10" function="internal">
        <lane id=":gneJ142_10_0" index="0" speed="13.89" length="15.30" shape="351.77,288.15 355.55,287.87 359.32,287.12 363.02,286.00 366.56,284.62"/>
    </edge>
    <edge id=":gneJ142_11" function="internal">
        <lane id=":gneJ142_11_0" index="0" speed="11.51" length="5.39" shape="351.77,288.15 355.54,288.57 357.03,289.14"/>
    </edge>
    <edge id=":gneJ142_13" function="internal">
        <lane id=":gneJ142_13_0" index="0" speed="11.51" length="10.13" shape="357.03,289.14 358.99,289.89 362.14,292.09 364.97,295.18"/>
    </edge>
    <edge id=":gneJ146_0" function="internal">
        <lane id=":gneJ146_0_0" index="0" speed="8.73" length="12.33" shape="337.82,245.90 333.89,246.17 330.82,247.05 328.59,248.54 327.22,250.65"/>
    </edge>
    <edge id=":gneJ146_1" function="internal">
        <lane id=":gneJ146_1_0" index="0" speed="13.89" length="17.77" shape="337.82,245.90 333.64,245.49 329.04,244.38 324.67,242.68 321.16,240.47"/>
    </edge>
    <edge id=":gneJ146_2" function="internal">
        <lane id=":gneJ146_2_0" index="0" speed="7.39" length="17.09" shape="337.82,245.90 332.69,245.18 330.01,243.14 329.78,239.78 331.99,235.10"/>
    </edge>
    <edge id=":gneJ146_3" function="internal">
        <lane id=":gneJ146_3_0" index="0" speed="5.63" length="9.29" shape="334.68,236.83 333.48,239.38 333.61,241.20 335.06,242.31 337.85,242.70"/>
    </edge>
    <edge id=":gneJ146_4" function="internal">
        <lane id=":gneJ146_4_0" index="0" speed="13.89" length="15.72" shape="334.68,236.83 332.63,240.11 330.62,243.57 328.77,247.12 327.22,250.65"/>
    </edge>
    <edge id=":gneJ146_5" function="internal">
        <lane id=":gneJ146_5_0" index="0" speed="8.19" length="6.83" shape="334.68,236.83 331.48,240.73 329.92,241.62"/>
    </edge>
    <edge id=":gneJ146_12" function="internal">
        <lane id=":gneJ146_12_0" index="0" speed="8.19" length="9.60" shape="329.92,241.62 328.15,242.63 324.72,242.54 321.16,240.47"/>
    </edge>
    <edge id=":gneJ146_6" function="internal">
        <lane id=":gneJ146_6_0" index="0" speed="6.75" length="10.77" shape="323.24,238.03 325.45,239.26 327.64,239.19 329.83,237.80 331.99,235.10"/>
    </edge>
    <edge id=":gneJ146_7" function="internal">