<routes>
	<vType id="vw_super" accel="0.6" decel="1.3" sigma="0.4" length="5" minGap="2.5" maxSpeed="3" guiShape="passenger"/>

</routes>
