<?xml version="1.0" encoding="UTF-8"?>

<!-- generated on 12/06/18 00:06:20 by Eclipse SUMO netedit Version v1_0_1+0383-8ba62d898b
<configuration xmlns:xsi="http://www.w3.org/2001/XMLSchema-instance" xsi:noNamespaceSchemaLocation="http://sumo.dlr.de/xsd/netconvertConfiguration.xsd">

    <input>
        <sumo-net-file value="regions.net.xml"/>
    </input>

    <output>
        <output-file value="regions.net.xml"/>
    </output>

    <processing>
        <offset.disable-normalization value="true"/>
        <lefthand value="false"/>
    </processing>

    <junctions>
        <no-turnarounds value="true"/>
        <junctions.corner-detail value="5"/>
        <junctions.limit-turn-speed value="5.5"/>
        <rectangular-lane-cut value="false"/>
    </junctions>

    <pedestrian>
        <walkingareas value="false"/>
    </pedestrian>

</configuration>
-->

<additional xmlns:xsi="http://www.w3.org/2001/XMLSchema-instance" xsi:noNamespaceSchemaLocation="http://sumo.dlr.de/xsd/additional_file.xsd">
    <poly id="poly_0" color="130,130,130" fill="1" layer="128.00" shape="123.340000,52.190000 170.230000,52.880000 171.390000,12.120000 133.760000,12.810000 134.450000,0.540000 121.020000,1.930000 122.670000,52.050000"/>
    <poly id="poly_1" color="255,200,16" fill="1" layer="-1.00" shape="69.420000,55.050000 116.270000,54.130000 117.500000,4.500000 82.360000,-1.820000 70.190000,1.150000 69.000000,54.730000"/>
    <poly id="poly_10" color="130,130,130" fill="1" layer="1.00" shape="339.320000,86.040000 339.580000,65.150000 345.690000,65.790000 343.400000,86.800000 338.940000,86.170000"/>
    <poly id="poly_11" color="cyan" fill="1" layer="-1.00" shape="286.040000,125.500000 337.600000,124.380000 337.460000,111.910000 355.540000,94.530000 355.820000,52.920000 285.060000,52.920000 285.620000,124.940000"/>
    <poly id="poly_12" color="130,130,130" fill="1" layer="1.00" shape="299.200000,212.020000 330.990000,212.830000 331.240000,197.540000 324.370000,197.670000 323.980000,205.060000 299.020000,203.910000 299.150000,212.320000"/>
    <poly id="poly_13" color="cyan" fill="1" layer="-1.00" shape="285.630000,206.790000 335.980000,206.790000 336.150000,175.420000 315.810000,175.250000 304.110000,187.120000 286.310000,187.630000 285.290000,206.450000"/>
    <poly id="poly_14" color="130,130,130" fill="1" layer="1.00" shape="92.180000,222.370000 102.920000,222.260000 102.920000,218.470000 124.190000,218.260000 124.080000,194.150000 116.920000,194.150000 89.340000,214.890000 89.240000,223.000000 92.390000,222.370000"/>
    <poly id="poly_15" color="130,130,130" fill="1" layer="1.00" shape="82.080000,184.050000 109.970000,183.520000 109.970000,177.520000 80.710000,177.730000 81.550000,183.620000"/>
    <poly id="poly_16" color="cyan" fill="1" layer="-1.00" shape="74.080000,217.100000 91.340000,217.310000 127.770000,192.150000 126.710000,175.410000 80.180000,175.620000 74.500000,179.410000 74.080000,216.790000"/>
    <poly id="poly_17" color="130,130,130" fill="1" layer="1.00" shape="-19.790000,203.040000 11.960000,203.340000 12.190000,196.270000 -21.280000,196.040000 -21.160000,203.450000 -20.000000,203.100000"/>
    <poly id="poly_18" color="130,130,130" fill="1" layer="1.00" shape="-104.310000,232.860000 -95.740000,233.210000 -95.270000,225.220000 -42.350000,226.260000 -42.000000,234.720000 -24.170000,234.020000 -25.680000,215.840000 -105.350000,216.540000 -104.650000,232.860000"/>
    <poly id="poly_19" color="130,130,130" fill="1" layer="1.00" shape="27.130000,200.320000 39.520000,200.320000 39.290000,175.540000 20.180000,175.310000 19.490000,183.420000 27.940000,189.670000 26.900000,200.670000"/>
    <poly id="poly_2" color="130,130,130" fill="1" layer="128.00" shape="214.470000,28.960000 207.380000,28.810000 207.380000,42.060000 225.260000,41.600000 225.420000,36.820000 261.020000,37.130000 260.250000,2.760000 213.700000,3.220000 214.010000,28.810000"/>
    <poly id="poly_20" color="130,130,130" fill="1" layer="1.00" shape="-134.180000,209.590000 -134.300000,174.500000 -114.380000,174.620000 -114.610000,187.360000 -125.030000,186.780000 -125.500000,212.480000 -115.540000,213.180000 -116.230000,223.370000 -134.880000,222.100000 -134.300000,209.010000"/>
    <poly id="poly_21" color="cyan" fill="1" layer="-1.00" shape="39.280000,216.970000 40.670000,172.740000 23.400000,172.270000 14.770000,176.590000 -128.570000,177.050000 -128.260000,218.050000 -99.440000,221.750000 39.280000,217.590000"/>
    <poly id="poly_22" color="130,130,130" fill="1" layer="1.00" shape="181.520000,351.570000 214.150000,351.250000 213.540000,333.990000 179.630000,334.300000 179.630000,352.330000"/>
    <poly id="poly_23" color="130,130,130" fill="1" layer="1.00" shape="180.550000,326.950000 212.220000,327.230000 212.360000,319.950000 180.550000,320.370000 180.130000,326.670000"/>
    <poly id="poly_24" color="130,130,130" fill="1" layer="1.00" shape="195.970000,315.740000 212.920000,316.160000 213.060000,303.690000 194.290000,304.250000 195.970000,315.740000"/>
    <poly id="poly_25" color="130,130,130" fill="1" layer="1.00" shape="227.070000,346.150000 227.490000,292.480000 229.740000,292.760000 229.180000,345.730000 226.930000,345.870000"/>
    <poly id="poly_26" color="130,130,130" fill="1" layer="1.00" shape="244.450000,346.290000 246.270000,346.010000 247.390000,327.090000 253.000000,320.230000 253.280000,292.200000 249.770000,291.360000 250.750000,319.530000 244.870000,325.830000 244.310000,346.570000"/>
    <poly id="poly_27" color="130,130,130" fill="1" layer="1.00" shape="233.380000,346.010000 242.350000,346.150000 241.650000,343.210000 232.820000,344.610000 233.240000,345.870000"/>
    <poly id="poly_28" color="130,130,130" fill="1" layer="1.00" shape="233.520000,295.150000 247.390000,294.730000 247.390000,292.060000 233.660000,292.620000 233.520000,294.590000"/>
    <poly id="poly_29" color="red" fill="1" layer="-1.00" shape="273.990000,359.940000 274.670000,317.560000 263.480000,277.040000 218.550000,280.260000 188.540000,305.860000 188.200000,356.720000 205.490000,359.090000 273.990000,359.600000"/>
    <poly id="poly_3" color="130,130,130" fill="1" layer="128.00" shape="82.230000,119.590000 173.170000,119.440000 173.630000,97.860000 140.490000,98.630000 140.650000,82.750000 81.610000,83.520000 81.460000,119.280000"/>
    <poly id="poly_30" color="130,130,130" fill="1" layer="1.00" shape="113.800000,332.380000 120.320000,337.420000 126.110000,330.700000 119.950000,326.600000 113.420000,332.940000"/>
    <poly id="poly_31" color="130,130,130" fill="1" layer="1.00" shape="189.140000,265.240000 195.220000,261.010000 189.890000,254.240000 185.380000,259.160000 189.070000,264.500000"/>
    <poly id="poly_32" color="130,130,130" fill="1" layer="1.00" shape="120.190000,271.720000 120.490000,258.460000 134.370000,249.990000 142.230000,257.540000 139.700000,267.140000 137.040000,266.020000 139.000000,258.730000 134.660000,254.390000 122.330000,260.550000 122.190000,270.780000 127.090000,274.280000 124.570000,275.960000 119.670000,271.340000"/>
    <poly id="poly_33" color="130,130,130" fill="1" layer="1.00" shape="90.300000,299.190000 93.470000,299.000000 93.660000,296.010000 89.930000,295.640000 89.980000,298.960000"/>
    <poly id="poly_34" color="green" fill="1" layer="-1.00" shape="142.950000,358.720000 133.470000,358.950000 100.300000,336.610000 76.830000,298.470000 77.510000,279.740000 105.270000,234.380000 158.750000,205.720000 203.880000,224.680000 211.100000,268.000000 172.860000,301.220000 173.640000,343.150000 142.500000,358.950000"/>
    <poly id="poly_35" color="130,130,130" fill="1" layer="1.00" shape="-27.350000,124.860000 -92.080000,125.320000 -91.930000,122.860000 -27.190000,122.240000 -27.500000,124.860000"/>
    <poly id="poly_36" color="130,130,130" fill="1" layer="1.00" shape="-12.770000,124.490000 47.760000,122.960000 53.020000,27.340000 49.960000,27.000000 45.050000,120.080000 -13.460000,120.950000 -12.530000,123.740000"/>
    <poly id="poly_37" color="130,130,130" fill="1" layer="1.00" shape="-48.480000,85.630000 -29.640000,86.450000 -30.570000,76.400000 -49.790000,75.500000 -50.390000,86.620000"/>
    <poly id="poly_38" color="130,130,130" fill="1" layer="1.00" shape="-97.250000,111.250000 -82.830000,108.840000 -84.330000,94.430000 -99.950000,95.630000 -97.850000,110.040000"/>
    <poly id="poly_39" color="130,130,130" fill="1" layer="1.00" shape="-86.740000,80.910000 -77.420000,85.710000 -61.210000,66.490000 -73.820000,59.280000 -88.540000,80.010000"/>
    <poly id="poly_4" color="130,130,130" fill="1" layer="128.00" shape="187.350000,117.120000 265.950000,117.430000 265.030000,84.290000 217.560000,84.910000 216.940000,96.010000 188.430000,96.160000 187.500000,116.970000"/>
    <poly id="poly_40" color="130,130,130" fill="1" layer="1.00" shape="-49.190000,58.080000 -56.700000,45.770000 -38.080000,36.760000 -32.670000,51.770000 -49.790000,58.380000"/>
    <poly id="poly_41" color="130,130,130" fill="1" layer="1.00" shape="-11.050000,43.360000 3.370000,29.550000 18.690000,49.670000 7.280000,55.980000 -11.350000,42.460000"/>
    <poly id="poly_42" color="130,130,130" fill="1" layer="1.00" shape="-9.540000,85.110000 -7.440000,74.900000 7.580000,65.590000 14.480000,75.200000 4.570000,86.620000 -10.140000,85.410000"/>
    <poly id="poly_43" color="130,130,130" fill="1" layer="1.00" shape="34.910000,83.310000 23.500000,63.490000 30.700000,55.680000 40.620000,79.410000 34.010000,83.310000"/>
    <poly id="poly_44" color="130,130,130" fill="1" layer="1.00" shape="32.510000,115.450000 36.170000,101.600000 42.120000,100.940000 39.440000,117.460000 32.660000,115.940000"/>
    <poly id="poly_45" color="130,130,130" fill="1" layer="1.00" shape="-10.740000,116.450000 16.390000,115.430000 15.370000,107.970000 -8.030000,101.860000 -10.230000,115.940000"/>
    <poly id="poly_46" color="130,130,130" fill="1" layer="1.00" shape="-29.220000,117.800000 -29.900000,102.370000 -49.400000,104.240000 -62.790000,117.120000 -29.730000,117.970000"/>
    <poly id="poly_47" color="blue" fill="1" layer="-1.00" shape="-80.030000,120.040000 35.640000,117.700000 42.270000,91.340000 30.090000,68.070000 -10.140000,36.930000 -44.350000,42.790000 -81.500000,81.320000 -91.820000,113.070000 -79.650000,119.700000"/>
    <poly id="poly_48" color="130,130,130" fill="1" layer="1.00" shape="48.170000,296.830000 48.020000,355.110000 44.110000,355.490000 44.850000,296.370000 47.840000,296.550000"/>
    <poly id="poly_49" color="130,130,130" fill="1" layer="1.00" shape="43.920000,282.940000 49.140000,283.500000 48.210000,221.580000 -8.300000,222.510000 -23.410000,237.060000 -112.920000,236.500000 -112.740000,239.860000 -20.980000,239.860000 -6.810000,225.870000 43.730000,225.310000 44.800000,283.020000"/>
    <poly id="poly_5" color="255,200,16" fill="1" layer="-1.00" shape="147.300000,95.640000 173.640000,95.640000 173.640000,66.360000 143.660000,66.080000 144.080000,94.100000 147.580000,95.780000"/>
    <poly id="poly_50" color="130,130,130" fill="1" layer="1.00" shape="20.260000,324.870000 19.770000,299.800000 35.650000,300.300000 33.420000,323.880000 19.520000,324.620000"/>
    <poly id="poly_51" color="130,130,130" fill="1" layer="1.00" shape="19.770000,280.690000 19.520000,264.060000 34.630000,264.100000 33.610000,281.950000 19.450000,280.100000"/>
    <poly id="poly_52" color="130,130,130" fill="1" layer="1.00" shape="24.640000,255.500000 30.510000,242.410000 23.970000,232.430000 38.880000,229.630000 40.000000,257.420000 24.900000,255.560000"/>
    <poly id="poly_53" color="130,130,130" fill="1" layer="1.00" shape="4.680000,245.640000 -3.570000,237.220000 1.850000,230.000000 13.810000,230.680000 11.580000,242.460000 4.630000,245.690000"/>
    <poly id="poly_54" color="130,130,130" fill="1" layer="1.00" shape="-25.680000,264.920000 -10.500000,259.380000 -20.140000,247.480000 -36.760000,256.510000 -26.300000,265.330000"/>
    <poly id="poly_55" color="130,130,130" fill="1" layer="1.00" shape="-10.980000,287.430000 2.250000,283.700000 -0.300000,270.820000 -16.910000,277.090000 -11.490000,287.770000"/>
    <poly id="poly_56" color="130,130,130" fill="1" layer="1.00" shape="-34.880000,291.160000 -20.230000,287.450000 -23.350000,278.280000 -37.430000,281.840000 -34.370000,291.500000"/>
    <poly id="poly_57" color="130,130,130" fill="1" layer="1.00" shape="-49.460000,283.530000 -43.170000,274.770000 -60.330000,260.970000 -65.740000,270.850000 -50.260000,282.790000"/>
    <poly id="poly_58" color="130,130,130" fill="1" layer="1.00" shape="-73.200000,288.960000 -82.450000,292.830000 -89.080000,282.340000 -80.440000,276.950000 -74.120000,288.360000"/>
    <poly id="poly_59" color="130,130,130" fill="1" layer="1.00" shape="-73.370000,274.210000 -68.620000,269.800000 -74.050000,257.760000 -84.220000,269.970000 -74.560000,274.720000"/>
    <poly id="poly_6" color="255,200,16" fill="1" layer="-1.00" shape="185.550000,94.240000 211.200000,94.520000 215.540000,89.200000 215.540000,66.780000 185.830000,65.520000 185.830000,94.380000"/>
    <poly id="poly_60" color="130,130,130" fill="1" layer="1.00" shape="-69.810000,327.440000 -78.460000,316.080000 -63.200000,312.860000 -57.630000,323.810000 -70.120000,327.350000"/>
    <poly id="poly_61" color="130,130,130" fill="1" layer="1.00" shape="-80.630000,303.010000 -83.560000,297.280000 -70.700000,293.080000 -66.880000,299.700000 -80.760000,303.520000"/>
    <poly id="poly_62" color="130,130,130" fill="1" layer="1.00" shape="-41.020000,323.010000 -31.150000,328.290000 -22.850000,310.490000 -34.710000,306.250000 -40.940000,324.190000"/>
    <poly id="poly_63" color="130,130,130" fill="1" layer="1.00" shape="-17.060000,303.110000 -0.090000,300.130000 0.090000,314.490000 -15.390000,314.490000 -16.570000,303.370000"/>
    <poly id="poly_64" color="130,130,130" fill="1" layer="1.00" shape="-15.180000,337.590000 1.840000,325.890000 -2.790000,318.710000 -20.390000,331.910000 -15.070000,337.940000"/>
    <poly id="poly_65" color="130,130,130" fill="1" layer="1.00" shape="24.430000,357.100000 23.650000,343.850000 39.380000,344.310000 37.530000,359.880000 23.960000,358.180000"/>
    <poly id="poly_66" color="130,130,130" fill="1" layer="1.00" shape="-2.240000,364.190000 -7.020000,355.100000 2.080000,348.160000 8.860000,365.420000 -2.240000,365.120000"/>
    <poly id="poly_67" color="130,130,130" fill="1" layer="1.00" shape="-21.970000,359.720000 -33.840000,340.920000 -25.050000,336.450000 -14.420000,358.330000 -21.980000,359.610000"/>
    <poly id="poly_68" color="blue" fill="1" layer="-1.00" shape="45.280000,348.380000 45.280000,228.990000 -16.060000,231.040000 -47.660000,264.480000 -78.220000,266.730000 -82.120000,287.250000 -68.470000,324.900000 -36.990000,334.840000 -24.290000,354.170000 13.170000,361.610000 33.930000,350.330000 45.440000,344.690000"/>
    <poly id="poly_69" color="130,130,130" fill="1" layer="-1.00" shape="286.200000,298.240000 285.810000,361.000000 289.650000,361.220000 290.300000,298.650000 286.140000,298.450000"/>
    <poly id="poly_7" color="255,200,16" fill="1" layer="-1.00" shape="173.780000,53.050000 184.710000,52.910000 186.250000,39.460000 203.210000,35.250000 206.010000,23.340000 205.170000,4.010000 174.620000,4.710000 173.360000,53.190000"/>
    <poly id="poly_70" color="130,130,130" fill="1" layer="-1.00" shape="285.590000,283.450000 290.710000,283.250000 290.100000,220.880000 395.190000,215.880000 394.350000,211.810000 287.030000,217.750000 285.670000,282.340000"/>
    <poly id="poly_71" color="130,130,130" fill="1" layer="-1.00" shape="295.300000,300.140000 294.410000,315.120000 307.510000,313.890000 305.040000,299.860000 294.560000,299.860000"/>
    <poly id="poly_72" color="130,130,130" fill="1" layer="-1.00" shape="299.190000,336.700000 310.750000,339.010000 313.060000,331.150000 310.440000,321.750000 298.880000,321.440000 299.340000,337.160000"/>
    <poly id="poly_73" color="130,130,130" fill="1" layer="-1.00" shape="292.250000,349.960000 297.950000,354.580000 306.890000,343.330000 299.650000,340.710000 292.710000,350.110000"/>
    <poly id="poly_74" color="130,130,130" fill="1" layer="-1.00" shape="297.340000,374.000000 298.570000,362.600000 308.900000,365.990000 305.350000,376.310000 296.410000,374.000000"/>
    <poly id="poly_75" color="130,130,130" fill="1" layer="-1.00" shape="315.220000,366.910000 309.050000,360.590000 313.830000,354.890000 320.460000,361.360000 313.520000,366.910000"/>
    <poly id="poly_76" color="130,130,130" fill="1" layer="-1.00" shape="325.540000,371.840000 324.460000,365.830000 333.100000,362.600000 337.410000,371.690000 325.390000,373.690000"/>
    <poly id="poly_77" color="130,130,130" fill="1" layer="-1.00" shape="337.410000,356.890000 331.090000,349.960000 335.560000,345.330000 343.420000,351.190000 338.030000,357.820000"/>
    <poly id="poly_78" color="130,130,130" fill="1" layer="-1.00" shape="349.430000,346.100000 352.210000,332.850000 358.530000,334.240000 354.830000,347.650000 350.050000,346.260000"/>
    <poly id="poly_79" color="130,130,130" fill="1" layer="-1.00" shape="345.890000,332.080000 346.660000,323.450000 329.400000,321.290000 327.850000,332.390000 345.270000,331.770000"/>
    <poly id="poly_8" color="130,130,130" fill="1" layer="1.00" shape="297.160000,121.320000 297.410000,111.640000 320.340000,112.020000 319.580000,121.830000 296.270000,121.580000"/>
    <poly id="poly_80" color="130,130,130" fill="1" layer="-1.00" shape="324.160000,318.980000 318.760000,300.480000 334.790000,301.250000 333.710000,318.820000 323.690000,318.980000"/>
    <poly id="poly_81" color="130,130,130" fill="1" layer="-1.00" shape="341.420000,306.950000 342.650000,299.090000 357.600000,298.630000 354.830000,310.040000 341.880000,306.950000"/>
    <poly id="poly_82" color="130,130,130" fill="1" layer="-1.00" shape="366.230000,323.760000 358.680000,314.040000 366.390000,309.730000 372.550000,318.050000 366.080000,323.910000"/>
    <poly id="poly_83" color="130,130,130" fill="1" layer="-1.00" shape="383.030000,321.440000 378.410000,316.670000 382.260000,307.420000 388.580000,309.730000 383.340000,320.520000"/>
    <poly id="poly_84" color="130,130,130" fill="1" layer="-1.00" shape="377.480000,301.250000 371.010000,294.320000 379.950000,290.310000 383.500000,297.090000 377.790000,299.400000"/>
    <poly id="poly_85" color="130,130,130" fill="1" layer="-1.00" shape="388.120000,290.000000 386.270000,284.450000 387.970000,277.210000 397.680000,278.590000 388.120000,290.620000"/>
    <poly id="poly_86" color="130,130,130" fill="1" layer="-1.00" shape="384.270000,275.200000 375.020000,271.500000 378.260000,263.640000 387.190000,267.190000 383.800000,274.900000"/>
    <poly id="poly_87" color="130,130,130" fill="1" layer="-1.00" shape="367.770000,277.980000 364.540000,273.970000 365.620000,265.490000 371.940000,265.340000 367.470000,279.060000"/>
    <poly id="poly_88" color="130,130,130" fill="1" layer="-1.00" shape="366.080000,259.950000 357.600000,255.940000 363.610000,247.920000 371.940000,254.090000 364.690000,260.720000"/>
    <poly id="poly_89" color="130,130,130" fill="1" layer="-1.00" shape="336.950000,280.600000 349.740000,282.290000 350.820000,270.120000 338.030000,270.120000 337.720000,280.910000"/>
    <poly id="poly_9" color="130,130,130" fill="1" layer="1.00" shape="330.790000,98.650000 323.910000,98.780000 304.170000,84.640000 288.370000,84.380000 288.370000,76.230000 330.790000,77.120000 330.660000,98.650000"/>
    <poly id="poly_90" color="130,130,130" fill="1" layer="-1.00" shape="329.400000,281.220000 322.150000,279.210000 327.240000,267.810000 337.260000,272.740000 329.400000,281.520000"/>
    <poly id="poly_91" color="130,130,130" fill="1" layer="-1.00" shape="339.260000,264.410000 332.630000,261.790000 334.170000,255.630000 349.430000,252.860000 338.490000,265.340000"/>
    <poly id="poly_92" color="130,130,130" fill="1" layer="-1.00" shape="305.040000,280.750000 298.110000,278.750000 300.730000,267.650000 310.750000,270.270000 304.740000,281.520000"/>
    <poly id="poly_93" color="130,130,130" fill="1" layer="-1.00" shape="311.830000,265.190000 296.100000,261.180000 305.970000,242.370000 319.380000,249.770000 310.900000,265.490000"/>
    <poly id="poly_94" color="130,130,130" fill="1" layer="-1.00" shape="367.930000,245.150000 360.380000,236.670000 375.790000,233.740000 377.330000,243.920000 367.620000,245.300000"/>
    <poly id="poly_95" color="130,130,130" fill="1" layer="-1.00" shape="350.670000,238.370000 343.580000,232.970000 355.440000,223.880000 360.380000,227.730000 350.360000,238.520000"/>
    <poly id="poly_96" color="130,130,130" fill="1" layer="-1.00" shape="328.160000,230.970000 322.310000,231.590000 316.450000,225.270000 330.010000,222.340000 327.850000,231.280000"/>
    <poly id="poly_97" color="130,130,130" fill="1" layer="-1.00" shape="306.280000,236.830000 298.720000,241.600000 294.250000,232.510000 298.720000,227.420000 305.810000,235.280000"/>
    <poly id="poly_98" color="blue" fill="1" layer="-2.00" shape="287.100000,358.530000 302.550000,370.430000 329.310000,370.160000 382.830000,313.640000 392.930000,282.240000 376.820000,214.800000 287.530000,218.890000 287.530000,355.960000"/>
</additional>
