<?xml version="1.0" encoding="UTF-8"?>

<!-- generated on Sat 20 Oct 2018 05:39:31 AM UTC by Netedit Version 0.30.0
<?xml version="1.0" encoding="UTF-8"?>

<configuration xmlns:xsi="http://www.w3.org/2001/XMLSchema-instance" xsi:noNamespaceSchemaLocation="http://sumo.dlr.de/xsd/netconvertConfiguration.xsd">

    <input>
        <sumo-net-file value="../data/diverging_diamond.net.xml"/>
    </input>

    <output>
        <output-file value="../data/diverging_diamond.net.xml"/>
    </output>

    <processing>
        <no-turnarounds value="true"/>
        <offset.disable-normalization value="true"/>
        <lefthand value="false"/>
        <junctions.corner-detail value="0"/>
        <rectangular-lane-cut value="false"/>
    </processing>

</configuration>
-->

<net version="0.27" xmlns:xsi="http://www.w3.org/2001/XMLSchema-instance" xsi:noNamespaceSchemaLocation="http://sumo.dlr.de/xsd/net_file.xsd">

    <location netOffset="0.00,0.00" convBoundary="-60.00,-15.00,210.00,120.00" origBoundary="-10000000000.00,-10000000000.00,10000000000.00,10000000000.00" projParameter="!"/>

    <edge id=":gneJ0_0" function="internal">
        <lane id=":gneJ0_0_0" index="0" speed="13.89" length="0.10" shape="50.00,41.75 50.00,41.75"/>
        <lane id=":gneJ0_0_1" index="1" speed="13.89" length="0.10" shape="50.00,45.05 50.00,45.05"/>
        <lane id=":gneJ0_0_2" index="2" speed="13.89" length="0.10" shape="50.00,48.35 50.00,48.35"/>
    </edge>
    <edge id=":gneJ1_0" function="internal">
        <lane id=":gneJ1_0_0" index="0" speed="13.89" length="0.10" shape="100.00,41.75 100.00,41.75"/>
        <lane id=":gneJ1_0_1" index="1" speed="13.89" length="0.10" shape="100.00,45.05 100.00,45.05"/>
        <lane id=":gneJ1_0_2" index="2" speed="13.89" length="0.10" shape="100.00,48.35 100.00,48.35"/>
    </edge>
    <edge id=":gneJ14_0" function="internal">
        <lane id=":gneJ14_0_0" index="0" speed="13.89" length="0.75" shape="55.73,76.48 55.53,76.58 55.38,76.63 55.23,76.65 55.01,76.65"/>
    </edge>
    <edge id=":gneJ15_0" function="internal">
        <lane id=":gneJ15_0_0" index="0" speed="13.89" length="0.75" shape="94.99,76.65 94.77,76.65 94.62,76.63 94.47,76.58 94.27,76.48"/>
    </edge>
    <edge id=":gneJ18_0" function="internal">
        <lane id=":gneJ18_0_0" index="0" speed="13.89" length="2.55" shape="69.95,77.29 69.98,77.61 70.07,77.90 70.21,78.17 70.42,78.42"/>
        <lane id=":gneJ18_0_1" index="1" speed="13.89" length="2.55" shape="66.65,77.29 66.74,78.26 67.01,79.17 67.46,80.00 68.09,80.75"/>
    </edge>
    <edge id=":gneJ19_0" function="internal">
        <lane id=":gneJ19_0_0" index="0" speed="13.89" length="2.55" shape="79.58,78.42 79.79,78.17 79.93,77.90 80.02,77.61 80.05,77.29"/>
        <lane id=":gneJ19_0_1" index="1" speed="13.89" length="2.55" shape="81.91,80.75 82.54,80.00 82.99,79.17 83.26,78.26 83.35,77.29"/>
    </edge>
    <edge id=":gneJ2_0" function="internal">
        <lane id=":gneJ2_0_0" index="0" speed="13.89" length="0.10" shape="100.00,63.25 100.00,63.25"/>
        <lane id=":gneJ2_0_1" index="1" speed="13.89" length="0.10" shape="100.00,59.95 100.00,59.95"/>
        <lane id=":gneJ2_0_2" index="2" speed="13.89" length="0.10" shape="100.00,56.65 100.00,56.65"/>
    </edge>
    <edge id=":gneJ21_0" function="internal">
        <lane id=":gneJ21_0_0" index="0" speed="13.89" length="0.75" shape="55.01,28.35 55.23,28.35 55.38,28.37 55.53,28.42 55.73,28.52"/>
    </edge>
    <edge id=":gneJ22_0" function="internal">
        <lane id=":gneJ22_0_0" index="0" speed="13.89" length="0.75" shape="94.27,28.52 94.47,28.42 94.62,28.37 94.77,28.35 94.99,28.35"/>
    </edge>
    <edge id=":gneJ23_0" function="internal">
        <lane id=":gneJ23_0_0" index="0" speed="13.89" length="2.55" shape="70.42,26.58 70.21,26.83 70.07,27.10 69.98,27.39 69.95,27.71"/>
        <lane id=":gneJ23_0_1" index="1" speed="13.89" length="2.55" shape="68.09,24.25 67.46,25.00 67.01,25.83 66.74,26.74 66.65,27.71"/>
    </edge>
    <edge id=":gneJ24_0" function="internal">
        <lane id=":gneJ24_0_0" index="0" speed="13.89" length="2.59" shape="80.05,27.71 80.02,27.39 79.93,27.10 79.79,26.83 79.58,26.58"/>
        <lane id=":gneJ24_0_1" index="1" speed="13.89" length="2.59" shape="83.35,27.71 83.31,26.57 83.13,25.77 82.70,25.09 81.91,24.25"/>
    </edge>
    <edge id=":gneJ26_0" function="internal">
        <lane id=":gneJ26_0_0" index="0" speed="13.89" length="9.50" shape="72.81,80.81 79.53,87.53"/>
        <lane id=":gneJ26_0_1" index="1" speed="13.89" length="9.50" shape="70.47,83.14 77.19,89.86"/>
    </edge>
    <edge id=":gneJ26_2" function="internal">
        <lane id=":gneJ26_2_0" index="0" speed="13.89" length="9.50" shape="70.47,87.53 77.19,80.81"/>
        <lane id=":gneJ26_2_1" index="1" speed="13.89" length="9.50" shape="72.81,89.86 79.53,83.14"/>
    </edge>
    <edge id=":gneJ27_0" function="internal">
        <lane id=":gneJ27_0_0" index="0" speed="13.89" length="9.50" shape="77.19,24.19 70.47,17.47"/>
        <lane id=":gneJ27_0_1" index="1" speed="13.89" length="9.50" shape="79.53,21.86 72.81,15.14"/>
    </edge>
    <edge id=":gneJ27_2" function="internal">
        <lane id=":gneJ27_2_0" index="0" speed="13.89" length="9.50" shape="79.53,17.47 72.81,24.19"/>
        <lane id=":gneJ27_2_1" index="1" speed="13.89" length="9.50" shape="77.19,15.14 70.47,21.86"/>
    </edge>
    <edge id=":gneJ28_0" function="internal">
        <lane id=":gneJ28_0_0" index="0" speed="13.89" length="2.55" shape="66.49,13.49 65.86,12.73 65.41,11.90 65.14,11.00 65.05,10.02"/>
        <lane id=":gneJ28_0_1" index="1" speed="13.89" length="2.55" shape="68.82,11.15 68.61,10.91 68.47,10.63 68.38,10.34 68.35,10.02"/>
    </edge>
    <edge id=":gneJ29_0" function="internal">
        <lane id=":gneJ29_0_0" index="0" speed="13.89" length="2.55" shape="84.95,10.02 84.86,11.00 84.59,11.90 84.14,12.73 83.51,13.49"/>
        <lane id=":gneJ29_0_1" index="1" speed="13.89" length="2.55" shape="81.65,10.02 81.62,10.34 81.53,10.63 81.39,10.91 81.18,11.15"/>
    </edge>
    <edge id=":gneJ3_0" function="internal">
        <lane id=":gneJ3_0_0" index="0" speed="13.89" length="0.10" shape="50.00,63.25 50.00,63.25"/>
        <lane id=":gneJ3_0_1" index="1" speed="13.89" length="0.10" shape="50.00,59.95 50.00,59.95"/>
        <lane id=":gneJ3_0_2" index="2" speed="13.89" length="0.10" shape="50.00,56.65 50.00,56.65"/>
    </edge>
    <edge id=":gneJ30_0" function="internal">
        <lane id=":gneJ30_0_0" index="0" speed="13.89" length="6.82" shape="84.95,-0.17 85.19,1.01 85.90,2.32 87.08,3.75 88.73,5.31"/>
    </edge>
    <edge id=":gneJ30_1" function="internal">
        <lane id=":gneJ30_1_0" index="0" speed="13.89" length="7.21" shape="84.95,-0.17 84.95,7.05"/>
        <lane id=":gneJ30_1_1" index="1" speed="13.89" length="7.21" shape="81.65,-0.17 81.65,7.05"/>
    </edge>
    <edge id=":gneJ31_0" function="internal">
        <lane id=":gneJ31_0_0" index="0" speed="13.89" length="7.21" shape="65.05,7.05 65.05,-0.17"/>
        <lane id=":gneJ31_0_1" index="1" speed="13.89" length="7.21" shape="68.35,7.05 68.35,-0.17"/>
    </edge>
    <edge id=":gneJ31_2" function="internal">
        <lane id=":gneJ31_2_0" index="0" speed="13.89" length="6.82" shape="61.27,5.31 62.92,3.75 64.10,2.32 64.81,1.01 65.05,-0.17"/>
    </edge>
    <edge id=":gneJ32_0" function="internal">
        <lane id=":gneJ32_0_0" index="0" speed="13.89" length="7.92" shape="111.19,24.56 112.91,26.17 114.09,27.33 115.41,28.23 117.56,29.06"/>
    </edge>
    <edge id=":gneJ32_1" function="internal">
        <lane id=":gneJ32_1_0" index="0" speed="13.89" length="7.87" shape="109.79,28.35 112.12,28.30 113.74,28.28 115.32,28.47 117.56,29.06"/>
    </edge>
    <edge id=":gneJ36_0" function="internal">
        <lane id=":gneJ36_0_0" index="0" speed="13.89" length="6.42" shape="78.55,-16.65 81.35,-16.46 83.35,-15.88 84.55,-14.91 84.95,-13.55"/>
        <lane id=":gneJ36_0_1" index="1" speed="13.89" length="6.42" shape="78.55,-16.65 79.91,-16.46 80.88,-15.88 81.46,-14.91 81.65,-13.55"/>
    </edge>
    <edge id=":gneJ37_0" function="internal">
        <lane id=":gneJ37_0_0" index="0" speed="13.89" length="5.00" shape="68.35,-13.55 68.54,-14.91 69.12,-15.88 70.09,-16.46 71.45,-16.65"/>
    </edge>
    <edge id=":gneJ39_0" function="internal">
        <lane id=":gneJ39_0_0" index="0" speed="13.89" length="7.92" shape="32.44,29.06 34.59,28.23 35.91,27.33 37.09,26.17 38.81,24.56"/>
    </edge>
    <edge id=":gneJ39_1" function="internal">
        <lane id=":gneJ39_1_0" index="0" speed="13.89" length="7.87" shape="32.44,29.06 34.68,28.47 36.26,28.28 37.88,28.30 40.21,28.35"/>
    </edge>
    <edge id=":gneJ4_0" function="internal">
        <lane id=":gneJ4_0_0" index="0" speed="13.89" length="6.58" shape="69.95,29.89 69.95,36.47"/>
        <lane id=":gneJ4_0_1" index="1" speed="13.89" length="6.58" shape="66.65,29.89 66.65,36.47"/>
    </edge>
    <edge id=":gneJ4_2" function="internal">
        <lane id=":gneJ4_2_0" index="0" speed="13.89" length="5.95" shape="62.99,32.15 64.59,33.11 65.74,34.15 66.42,35.27 66.65,36.47"/>
    </edge>
    <edge id=":gneJ40_0" function="internal">
        <lane id=":gneJ40_0_0" index="0" speed="13.89" length="2.55" shape="65.05,94.98 65.14,94.00 65.41,93.10 65.86,92.27 66.49,91.51"/>
        <lane id=":gneJ40_0_1" index="1" speed="13.89" length="2.55" shape="68.35,94.98 68.38,94.66 68.47,94.37 68.61,94.09 68.82,93.85"/>
    </edge>
    <edge id=":gneJ41_0" function="internal">
        <lane id=":gneJ41_0_0" index="0" speed="13.89" length="2.56" shape="83.51,91.51 84.14,92.27 84.59,93.10 84.86,94.00 84.95,94.98"/>
        <lane id=":gneJ41_0_1" index="1" speed="13.89" length="2.56" shape="81.18,93.85 81.44,94.12 81.58,94.35 81.64,94.61 81.65,94.98"/>
    </edge>
    <edge id=":gneJ42_0" function="internal">
        <lane id=":gneJ42_0_0" index="0" speed="13.89" length="6.82" shape="65.05,105.17 64.81,103.99 64.10,102.68 62.92,101.25 61.27,99.69"/>
    </edge>
    <edge id=":gneJ42_1" function="internal">
        <lane id=":gneJ42_1_0" index="0" speed="13.89" length="7.21" shape="65.05,105.17 65.05,97.95"/>
        <lane id=":gneJ42_1_1" index="1" speed="13.89" length="7.21" shape="68.35,105.17 68.35,97.95"/>
    </edge>
    <edge id=":gneJ43_0" function="internal">
        <lane id=":gneJ43_0_0" index="0" speed="13.89" length="6.34" shape="88.69,101.19 87.05,102.43 85.88,103.65 85.18,104.85 84.95,106.04"/>
    </edge>
    <edge id=":gneJ43_1" function="internal">
        <lane id=":gneJ43_1_0" index="0" speed="13.89" length="6.85" shape="84.95,99.19 84.95,106.04"/>
        <lane id=":gneJ43_1_1" index="1" speed="13.89" length="6.85" shape="81.65,99.19 81.65,106.04"/>
    </edge>
    <edge id=":gneJ44_0" function="internal">
        <lane id=":gneJ44_0_0" index="0" speed="13.89" length="7.92" shape="38.81,80.44 37.09,78.83 35.91,77.67 34.59,76.77 32.44,75.94"/>
    </edge>
    <edge id=":gneJ44_1" function="internal">
        <lane id=":gneJ44_1_0" index="0" speed="13.89" length="7.87" shape="40.21,76.65 37.88,76.70 36.26,76.72 34.68,76.53 32.44,75.94"/>
    </edge>
    <edge id=":gneJ45_0" function="internal">
        <lane id=":gneJ45_0_0" index="0" speed="13.89" length="8.39" shape="126.97,76.04 124.69,77.00 123.24,77.89 121.88,78.95 119.85,80.41"/>
    </edge>
    <edge id=":gneJ45_1" function="internal">
        <lane id=":gneJ45_1_0" index="0" speed="13.89" length="8.36" shape="126.97,76.04 124.62,76.73 122.93,76.88 121.20,76.75 118.72,76.65"/>
    </edge>
    <edge id=":gneJ47_0" function="internal">
        <lane id=":gneJ47_0_0" index="0" speed="13.89" length="3.54" shape="154.85,66.55 153.80,66.56 153.08,66.63 152.38,66.81 151.39,67.16"/>
    </edge>
    <edge id=":gneJ47_1" function="internal">
        <lane id=":gneJ47_1_0" index="0" speed="13.89" length="3.29" shape="154.85,63.25 151.56,63.25"/>
        <lane id=":gneJ47_1_1" index="1" speed="13.89" length="3.29" shape="154.85,59.95 151.56,59.95"/>
        <lane id=":gneJ47_1_2" index="2" speed="13.89" length="3.29" shape="154.85,56.65 151.56,56.65"/>
    </edge>
    <edge id=":gneJ48_0" function="internal">
        <lane id=":gneJ48_0_0" index="0" speed="13.89" length="3.36" shape="191.50,63.25 188.50,66.55"/>
        <lane id=":gneJ48_0_1" index="1" speed="13.89" length="3.36" shape="191.50,63.25 188.50,63.25"/>
        <lane id=":gneJ48_0_2" index="2" speed="13.89" length="3.36" shape="191.50,59.95 188.50,59.95"/>
        <lane id=":gneJ48_0_3" index="3" speed="13.89" length="3.36" shape="191.50,56.65 188.50,56.65"/>
    </edge>
    <edge id=":gneJ49_0" function="internal">
        <lane id=":gneJ49_0_0" index="0" speed="13.89" length="7.91" shape="211.65,53.55 211.46,57.79 210.88,60.83 209.91,62.64 208.55,63.25"/>
        <lane id=":gneJ49_0_1" index="1" speed="13.89" length="7.91" shape="211.65,53.55 211.46,56.35 210.88,58.35 209.91,59.55 208.55,59.95"/>
        <lane id=":gneJ49_0_2" index="2" speed="13.89" length="7.91" shape="211.65,53.55 211.46,54.91 210.88,55.88 209.91,56.46 208.55,56.65"/>
    </edge>
    <edge id=":gneJ5_0" function="internal">
        <lane id=":gneJ5_0_0" index="0" speed="13.89" length="6.58" shape="69.95,68.53 69.95,75.11"/>
        <lane id=":gneJ5_0_1" index="1" speed="13.89" length="6.58" shape="66.65,68.53 66.65,75.11"/>
    </edge>
    <edge id=":gneJ5_2" function="internal">
        <lane id=":gneJ5_2_0" index="0" speed="13.89" length="5.95" shape="66.65,68.53 66.42,69.73 65.74,70.85 64.59,71.89 62.99,72.85"/>
    </edge>
    <edge id=":gneJ50_0" function="internal">
        <lane id=":gneJ50_0_0" index="0" speed="13.89" length="3.47" shape="146.41,37.94 147.39,38.23 148.08,38.38 148.79,38.44 149.81,38.45"/>
    </edge>
    <edge id=":gneJ50_1" function="internal">
        <lane id=":gneJ50_1_0" index="0" speed="13.89" length="3.16" shape="146.66,41.75 149.81,41.75"/>
        <lane id=":gneJ50_1_1" index="1" speed="13.89" length="3.16" shape="146.66,45.05 149.81,45.05"/>
        <lane id=":gneJ50_1_2" index="2" speed="13.89" length="3.16" shape="146.66,48.35 149.81,48.35"/>
    </edge>
    <edge id=":gneJ51_0" function="internal">
        <lane id=":gneJ51_0_0" index="0" speed="13.89" length="3.00" shape="188.50,41.75 191.50,41.75"/>
        <lane id=":gneJ51_0_1" index="1" speed="13.89" length="3.00" shape="188.50,45.05 191.50,45.05"/>
        <lane id=":gneJ51_0_2" index="2" speed="13.89" length="3.00" shape="188.50,48.35 191.50,48.35"/>
    </edge>
    <edge id=":gneJ52_0" function="internal">
        <lane id=":gneJ52_0_0" index="0" speed="13.89" length="5.00" shape="208.55,48.35 209.91,48.54 210.88,49.12 211.46,50.09 211.65,51.45"/>
    </edge>
    <edge id=":gneJ53_0" function="internal">
        <lane id=":gneJ53_0_0" index="0" speed="13.89" length="5.00" shape="81.65,118.55 81.46,119.91 80.88,120.88 79.91,121.46 78.55,121.65"/>
    </edge>
    <edge id=":gneJ54_0" function="internal">
        <lane id=":gneJ54_0_0" index="0" speed="13.89" length="6.42" shape="71.45,121.65 68.65,121.46 66.65,120.88 65.45,119.91 65.05,118.55"/>
        <lane id=":gneJ54_0_1" index="1" speed="13.89" length="6.42" shape="71.45,121.65 70.09,121.46 69.12,120.88 68.54,119.91 68.35,118.55"/>
    </edge>
    <edge id=":gneJ56_0" function="internal">
        <lane id=":gneJ56_0_0" index="0" speed="13.89" length="3.47" shape="3.59,67.06 2.61,66.77 1.92,66.62 1.21,66.56 0.19,66.55"/>
    </edge>
    <edge id=":gneJ56_1" function="internal">
        <lane id=":gneJ56_1_0" index="0" speed="13.89" length="3.16" shape="3.34,63.25 0.19,63.25"/>
        <lane id=":gneJ56_1_1" index="1" speed="13.89" length="3.16" shape="3.34,59.95 0.19,59.95"/>
        <lane id=":gneJ56_1_2" index="2" speed="13.89" length="3.16" shape="3.34,56.65 0.19,56.65"/>
    </edge>
    <edge id=":gneJ57_0" function="internal">
        <lane id=":gneJ57_0_0" index="0" speed="13.89" length="3.00" shape="-38.50,63.25 -41.50,63.25"/>
        <lane id=":gneJ57_0_1" index="1" speed="13.89" length="3.00" shape="-38.50,59.95 -41.50,59.95"/>
        <lane id=":gneJ57_0_2" index="2" speed="13.89" length="3.00" shape="-38.50,56.65 -41.50,56.65"/>
    </edge>
    <edge id=":gneJ58_0" function="internal">
        <lane id=":gneJ58_0_0" index="0" speed="13.89" length="5.00" shape="-58.55,56.65 -59.91,56.46 -60.88,55.88 -61.46,54.91 -61.65,53.55"/>
    </edge>
    <edge id=":gneJ59_0" function="internal">
        <lane id=":gneJ59_0_0" index="0" speed="13.89" length="7.91" shape="-61.65,51.45 -61.46,47.21 -60.88,44.17 -59.91,42.36 -58.55,41.75"/>
        <lane id=":gneJ59_0_1" index="1" speed="13.89" length="7.91" shape="-61.65,51.45 -61.46,48.65 -60.88,46.65 -59.91,45.45 -58.55,45.05"/>
        <lane id=":gneJ59_0_2" index="2" speed="13.89" length="7.91" shape="-61.65,51.45 -61.46,50.09 -60.88,49.13 -59.91,48.54 -58.55,48.35"/>
    </edge>
    <edge id=":gneJ6_0" function="internal">
        <lane id=":gneJ6_0_0" index="0" speed="13.89" length="6.58" shape="80.05,75.11 80.05,68.53"/>
        <lane id=":gneJ6_0_1" index="1" speed="13.89" length="6.58" shape="83.35,75.11 83.35,68.53"/>
    </edge>
    <edge id=":gneJ6_2" function="internal">
        <lane id=":gneJ6_2_0" index="0" speed="13.89" length="5.95" shape="87.01,72.85 85.41,71.89 84.26,70.85 83.58,69.73 83.35,68.53"/>
    </edge>
    <edge id=":gneJ60_0" function="internal">
        <lane id=":gneJ60_0_0" index="0" speed="13.89" length="3.36" shape="-41.50,41.75 -38.50,38.45"/>
        <lane id=":gneJ60_0_1" index="1" speed="13.89" length="3.36" shape="-41.50,41.75 -38.50,41.75"/>
        <lane id=":gneJ60_0_2" index="2" speed="13.89" length="3.36" shape="-41.50,45.05 -38.50,45.05"/>
        <lane id=":gneJ60_0_3" index="3" speed="13.89" length="3.36" shape="-41.50,48.35 -38.50,48.35"/>
    </edge>
    <edge id=":gneJ61_0" function="internal">
        <lane id=":gneJ61_0_0" index="0" speed="13.89" length="3.47" shape="0.19,38.45 1.21,38.44 1.92,38.38 2.61,38.23 3.59,37.94"/>
    </edge>
    <edge id=":gneJ61_1" function="internal">
        <lane id=":gneJ61_1_0" index="0" speed="13.89" length="3.16" shape="0.19,41.75 3.34,41.75"/>
        <lane id=":gneJ61_1_1" index="1" speed="13.89" length="3.16" shape="0.19,45.05 3.34,45.05"/>
        <lane id=":gneJ61_1_2" index="2" speed="13.89" length="3.16" shape="0.19,48.35 3.34,48.35"/>
    </edge>
    <edge id=":gneJ7_0" function="internal">
        <lane id=":gneJ7_0_0" index="0" speed="13.89" length="6.58" shape="80.05,36.47 80.05,29.89"/>
        <lane id=":gneJ7_0_1" index="1" speed="13.89" length="6.58" shape="83.35,36.47 83.35,29.89"/>
    </edge>
    <edge id=":gneJ7_2" function="internal">
        <lane id=":gneJ7_2_0" index="0" speed="13.89" length="5.95" shape="83.35,36.47 83.58,35.27 84.26,34.15 85.41,33.11 87.01,32.15"/>
    </edge>

    <edge id="gneE0" from="gneJ0" to="gneJ1" priority="1">
        <lane id="gneE0_0" index="0" speed="13.89" length="50.00" shape="50.00,41.75 100.00,41.75"/>
        <lane id="gneE0_1" index="1" speed="13.89" length="50.00" shape="50.00,45.05 100.00,45.05"/>
        <lane id="gneE0_2" index="2" speed="13.89" length="50.00" shape="50.00,48.35 100.00,48.35"/>
    </edge>
    <edge id="gneE1" from="gneJ2" to="gneJ3" priority="1">
        <lane id="gneE1_0" index="0" speed="13.89" length="50.00" shape="100.00,63.25 50.00,63.25"/>
        <lane id="gneE1_1" index="1" speed="13.89" length="50.00" shape="100.00,59.95 50.00,59.95"/>
        <lane id="gneE1_2" index="2" speed="13.89" length="50.00" shape="100.00,56.65 50.00,56.65"/>
    </edge>
    <edge id="gneE10" from="gneJ5" to="gneJ14" priority="1">
        <lane id="gneE10_0" index="0" speed="13.89" length="8.12" shape="62.99,72.85 55.73,76.48"/>
    </edge>
    <edge id="gneE11" from="gneJ15" to="gneJ6" priority="1">
        <lane id="gneE11_0" index="0" speed="13.89" length="8.12" shape="94.27,76.48 87.01,72.85"/>
    </edge>
    <edge id="gneE14" from="gneJ5" to="gneJ18" priority="2">
        <lane id="gneE14_0" index="0" speed="13.89" length="2.18" shape="69.95,75.11 69.95,77.29"/>
        <lane id="gneE14_1" index="1" speed="13.89" length="2.18" shape="66.65,75.11 66.65,77.29"/>
    </edge>
    <edge id="gneE15" from="gneJ19" to="gneJ6" priority="2">
        <lane id="gneE15_0" index="0" speed="13.89" length="2.18" shape="80.05,77.29 80.05,75.11"/>
        <lane id="gneE15_1" index="1" speed="13.89" length="2.18" shape="83.35,77.29 83.35,75.11"/>
    </edge>
    <edge id="gneE17" from="gneJ21" to="gneJ4" priority="1">
        <lane id="gneE17_0" index="0" speed="13.89" length="8.12" shape="55.73,28.52 62.99,32.15"/>
    </edge>
    <edge id="gneE18" from="gneJ7" to="gneJ22" priority="1">
        <lane id="gneE18_0" index="0" speed="13.89" length="8.12" shape="87.01,32.15 94.27,28.52"/>
    </edge>
    <edge id="gneE19" from="gneJ23" to="gneJ4" priority="2">
        <lane id="gneE19_0" index="0" speed="13.89" length="2.18" shape="69.95,27.71 69.95,29.89"/>
        <lane id="gneE19_1" index="1" speed="13.89" length="2.18" shape="66.65,27.71 66.65,29.89"/>
    </edge>
    <edge id="gneE2" from="gneJ4" to="gneJ5" priority="2">
        <lane id="gneE2_0" index="0" speed="13.89" length="32.06" shape="69.95,36.47 69.95,68.53"/>
        <lane id="gneE2_1" index="1" speed="13.89" length="32.06" shape="66.65,36.47 66.65,68.53"/>
    </edge>
    <edge id="gneE20" from="gneJ7" to="gneJ24" priority="2">
        <lane id="gneE20_0" index="0" speed="13.89" length="2.18" shape="80.05,29.89 80.05,27.71"/>
        <lane id="gneE20_1" index="1" speed="13.89" length="2.18" shape="83.35,29.89 83.35,27.71"/>
    </edge>
    <edge id="gneE23" from="gneJ18" to="gneJ26" priority="1">
        <lane id="gneE23_0" index="0" speed="13.89" length="3.38" shape="70.42,78.42 72.81,80.81"/>
        <lane id="gneE23_1" index="1" speed="13.89" length="3.38" shape="68.09,80.75 70.47,83.14"/>
    </edge>
    <edge id="gneE24" from="gneJ26" to="gneJ19" priority="1">
        <lane id="gneE24_0" index="0" speed="13.89" length="3.38" shape="77.19,80.81 79.58,78.42"/>
        <lane id="gneE24_1" index="1" speed="13.89" length="3.38" shape="79.53,83.14 81.91,80.75"/>
    </edge>
    <edge id="gneE25" from="gneJ24" to="gneJ27" priority="1">
        <lane id="gneE25_0" index="0" speed="13.89" length="3.38" shape="79.58,26.58 77.19,24.19"/>
        <lane id="gneE25_1" index="1" speed="13.89" length="3.38" shape="81.91,24.25 79.53,21.86"/>
    </edge>
    <edge id="gneE26" from="gneJ27" to="gneJ23" priority="1">
        <lane id="gneE26_0" index="0" speed="13.89" length="3.38" shape="72.81,24.19 70.42,26.58"/>
        <lane id="gneE26_1" index="1" speed="13.89" length="3.38" shape="70.47,21.86 68.09,24.25"/>
    </edge>
    <edge id="gneE27" from="gneJ27" to="gneJ28" priority="1">
        <lane id="gneE27_0" index="0" speed="13.89" length="5.64" shape="70.47,17.47 66.49,13.49"/>
        <lane id="gneE27_1" index="1" speed="13.89" length="5.64" shape="72.81,15.14 68.82,11.15"/>
    </edge>
    <edge id="gneE28" from="gneJ29" to="gneJ27" priority="1">
        <lane id="gneE28_0" index="0" speed="13.89" length="5.64" shape="83.51,13.49 79.53,17.47"/>
        <lane id="gneE28_1" index="1" speed="13.89" length="5.64" shape="81.18,11.15 77.19,15.14"/>
    </edge>
    <edge id="gneE29" from="gneJ30" to="gneJ29" priority="2">
        <lane id="gneE29_0" index="0" speed="13.89" length="2.97" shape="84.95,7.05 84.95,10.02"/>
        <lane id="gneE29_1" index="1" speed="13.89" length="2.97" shape="81.65,7.05 81.65,10.02"/>
    </edge>
    <edge id="gneE3" from="gneJ6" to="gneJ7" priority="2">
        <lane id="gneE3_0" index="0" speed="13.89" length="32.06" shape="80.05,68.53 80.05,36.47"/>
        <lane id="gneE3_1" index="1" speed="13.89" length="32.06" shape="83.35,68.53 83.35,36.47"/>
    </edge>
    <edge id="gneE30" from="gneJ28" to="gneJ31" priority="2">
        <lane id="gneE30_0" index="0" speed="13.89" length="2.97" shape="65.05,10.02 65.05,7.05"/>
        <lane id="gneE30_1" index="1" speed="13.89" length="2.97" shape="68.35,10.02 68.35,7.05"/>
    </edge>
    <edge id="gneE31" from="gneJ30" to="gneJ32" priority="1">
        <lane id="gneE31_0" index="0" speed="13.89" length="29.58" shape="88.73,5.31 111.19,24.56"/>
    </edge>
    <edge id="gneE33" from="gneJ22" to="gneJ32" priority="1">
        <lane id="gneE33_0" index="0" speed="13.89" length="14.80" shape="94.99,28.35 109.79,28.35"/>
    </edge>
    <edge id="gneE35" from="gneJ36" to="gneJ30" priority="2">
        <lane id="gneE35_0" index="0" speed="13.89" length="13.38" shape="84.95,-13.55 84.95,-0.17"/>
        <lane id="gneE35_1" index="1" speed="13.89" length="13.38" shape="81.65,-13.55 81.65,-0.17"/>
    </edge>
    <edge id="gneE36" from="gneJ31" to="gneJ37" priority="2">
        <lane id="gneE36_0" index="0" speed="13.89" length="13.38" shape="65.05,-0.17 65.05,-13.55"/>
        <lane id="gneE36_1" index="1" speed="13.89" length="13.38" shape="68.35,-0.17 68.35,-13.55"/>
    </edge>
    <edge id="gneE38" from="gneJ39" to="gneJ31" priority="1">
        <lane id="gneE38_0" index="0" speed="13.89" length="29.58" shape="38.81,24.56 61.27,5.31"/>
    </edge>
    <edge id="gneE39" from="gneJ39" to="gneJ21" priority="1">
        <lane id="gneE39_0" index="0" speed="13.89" length="14.80" shape="40.21,28.35 55.01,28.35"/>
    </edge>
    <edge id="gneE40" from="gneJ37" to="gneJ36" priority="1">
        <lane id="gneE40_0" index="0" speed="13.89" length="7.10" shape="71.45,-16.65 78.55,-16.65"/>
    </edge>
    <edge id="gneE41" from="gneJ40" to="gneJ26" priority="1">
        <lane id="gneE41_0" index="0" speed="13.89" length="5.64" shape="66.49,91.51 70.47,87.53"/>
        <lane id="gneE41_1" index="1" speed="13.89" length="5.64" shape="68.82,93.85 72.81,89.86"/>
    </edge>
    <edge id="gneE42" from="gneJ26" to="gneJ41" priority="1">
        <lane id="gneE42_0" index="0" speed="13.89" length="5.64" shape="79.53,87.53 83.51,91.51"/>
        <lane id="gneE42_1" index="1" speed="13.89" length="5.64" shape="77.19,89.86 81.18,93.85"/>
    </edge>
    <edge id="gneE43" from="gneJ42" to="gneJ40" priority="2">
        <lane id="gneE43_0" index="0" speed="13.89" length="2.97" shape="65.05,97.95 65.05,94.98"/>
        <lane id="gneE43_1" index="1" speed="13.89" length="2.97" shape="68.35,97.95 68.35,94.98"/>
    </edge>
    <edge id="gneE44" from="gneJ41" to="gneJ43" priority="2">
        <lane id="gneE44_0" index="0" speed="13.89" length="4.21" shape="84.95,94.98 84.95,99.19"/>
        <lane id="gneE44_1" index="1" speed="13.89" length="4.21" shape="81.65,94.98 81.65,99.19"/>
    </edge>
    <edge id="gneE45" from="gneJ42" to="gneJ44" priority="1">
        <lane id="gneE45_0" index="0" speed="13.89" length="29.58" shape="61.27,99.69 38.81,80.44"/>
    </edge>
    <edge id="gneE46" from="gneJ14" to="gneJ44" priority="1">
        <lane id="gneE46_0" index="0" speed="13.89" length="14.80" shape="55.01,76.65 40.21,76.65"/>
    </edge>
    <edge id="gneE47" from="gneJ45" to="gneJ43" priority="1">
        <lane id="gneE47_0" index="0" speed="13.89" length="37.46" shape="119.85,80.41 88.69,101.19"/>
    </edge>
    <edge id="gneE48" from="gneJ45" to="gneJ15" priority="1">
        <lane id="gneE48_0" index="0" speed="13.89" length="23.73" shape="118.72,76.65 94.99,76.65"/>
    </edge>
    <edge id="gneE50" from="gneJ47" to="gneJ45" priority="1">
        <lane id="gneE50_0" index="0" speed="13.89" length="25.99" shape="151.39,67.16 126.97,76.04"/>
    </edge>
    <edge id="gneE52" from="gneJ47" to="gneJ2" priority="3">
        <lane id="gneE52_0" index="0" speed="13.89" length="51.56" shape="151.56,63.25 100.00,63.25"/>
        <lane id="gneE52_1" index="1" speed="13.89" length="51.56" shape="151.56,59.95 100.00,59.95"/>
        <lane id="gneE52_2" index="2" speed="13.89" length="51.56" shape="151.56,56.65 100.00,56.65"/>
    </edge>
    <edge id="gneE53" from="gneJ48" to="gneJ47" priority="3">
        <lane id="gneE53_0" index="0" speed="13.89" length="33.65" shape="188.50,66.55 154.85,66.55"/>
        <lane id="gneE53_1" index="1" speed="13.89" length="33.65" shape="188.50,63.25 154.85,63.25"/>
        <lane id="gneE53_2" index="2" speed="13.89" length="33.65" shape="188.50,59.95 154.85,59.95"/>
        <lane id="gneE53_3" index="3" speed="13.89" length="33.65" shape="188.50,56.65 154.85,56.65"/>
    </edge>
    <edge id="gneE54" from="gneJ49" to="gneJ48" priority="3">
        <lane id="gneE54_0" index="0" speed="13.89" length="17.05" shape="208.55,63.25 191.50,63.25"/>
        <lane id="gneE54_1" index="1" speed="13.89" length="17.05" shape="208.55,59.95 191.50,59.95"/>
        <lane id="gneE54_2" index="2" speed="13.89" length="17.05" shape="208.55,56.65 191.50,56.65"/>
    </edge>
    <edge id="gneE55" from="gneJ1" to="gneJ50" priority="3">
        <lane id="gneE55_0" index="0" speed="13.89" length="46.66" shape="100.00,41.75 146.66,41.75"/>
        <lane id="gneE55_1" index="1" speed="13.89" length="46.66" shape="100.00,45.05 146.66,45.05"/>
        <lane id="gneE55_2" index="2" speed="13.89" length="46.66" shape="100.00,48.35 146.66,48.35"/>
    </edge>
    <edge id="gneE56" from="gneJ50" to="gneJ51" priority="3">
        <lane id="gneE56_0" index="0" speed="13.89" length="38.69" shape="149.81,38.45 188.50,38.45"/>
        <lane id="gneE56_1" index="1" speed="13.89" length="38.69" shape="149.81,41.75 188.50,41.75"/>
        <lane id="gneE56_2" index="2" speed="13.89" length="38.69" shape="149.81,45.05 188.50,45.05"/>
        <lane id="gneE56_3" index="3" speed="13.89" length="38.69" shape="149.81,48.35 188.50,48.35"/>
    </edge>
    <edge id="gneE57" from="gneJ51" to="gneJ52" priority="3">
        <lane id="gneE57_0" index="0" speed="13.89" length="17.05" shape="191.50,41.75 208.55,41.75"/>
        <lane id="gneE57_1" index="1" speed="13.89" length="17.05" shape="191.50,45.05 208.55,45.05"/>
        <lane id="gneE57_2" index="2" speed="13.89" length="17.05" shape="191.50,48.35 208.55,48.35"/>
    </edge>