<configuration>
	<input>
		<net-file value="diverging_diamond.net.xml" />
		<route-files value="diverging_diamond.rou.xml" />
		<gui-settings-file value="diverging_diamond.settings.xml" />
	</input>
	<time>
		<begin value="0" />
		<end value="30000" />
	</time>
</configuration>
